/*---------------------------------------------------------------------------*\
  =========                 |
  \\      /  F ield         | OpenFOAM: The Open Source CFD Toolbox
   \\    /   O peration     | Website:  https://openfoam.org
    \\  /    A nd           | Version:  6
     \\/     M anipulation  |
\*---------------------------------------------------------------------------*/
Build  : 6-fa1285188035
Exec   : pimpleFoam -parallel
Date   : Feb 27 2020
Time   : 20:34:41
Host   : "sakura-sekine-01"
PID    : 2647
I/O    : uncollated
Case   : /home/sekine/codes/OpenFOAM/pimpleFoam/pitzDailyLES-3dim02
nProcs : 6
Slaves : 
5
(
"sakura-sekine-01.2648"
"sakura-sekine-01.2649"
"sakura-sekine-01.2650"
"sakura-sekine-01.2651"
"sakura-sekine-01.2652"
)

Pstream initialized with:
    floatTransfer      : 0
    nProcsSimpleSum    : 0
    commsType          : nonBlocking
    polling iterations : 0
sigFpe : Enabling floating point exception trapping (FOAM_SIGFPE).
fileModificationChecking : Monitoring run-time modified files using timeStampMaster (fileModificationSkew 10)
allowSystemOperations : Allowing user-supplied system call operations

// * * * * * * * * * * * * * * * * * * * * * * * * * * * * * * * * * * * * * //
Create time

Create mesh for time = 0


PIMPLE: No convergence criteria found


PIMPLE: Operating solver in PISO mode

Reading field p

Reading field U

Reading/calculating face flux field phi

Selecting incompressible transport model Newtonian
Selecting turbulence model type LES
Selecting LES turbulence model Smagorinsky
Selecting LES delta type cubeRootVol
LES
{
    LESModel        Smagorinsky;
    turbulence      on;
    printCoeffs     on;
    delta           cubeRootVol;
    cubeRootVolCoeffs
    {
        deltaCoeff      1;
    }
    Ce              1.048;
    Ck              0.094;
}

No MRF models present

No finite volume options present
Courant Number mean: 8.32501e-06 max: 0.00145631

Starting time loop

Courant Number mean: 8.32501e-06 max: 0.00145631
deltaT = 1.19904e-06
Time = 1.19904e-06

smoothSolver:  Solving for Ux, Initial residual = 1, Final residual = 2.67644e-07, No Iterations 1
smoothSolver:  Solving for Uy, Initial residual = 1, Final residual = 1.67127e-07, No Iterations 1
smoothSolver:  Solving for Uz, Initial residual = 1, Final residual = 2.04122e-07, No Iterations 1
GAMG:  Solving for p, Initial residual = 1, Final residual = 0.00738541, No Iterations 8
time step continuity errors : sum local = 1.47443e-07, global = -7.93286e-08, cumulative = -7.93286e-08
GAMG:  Solving for p, Initial residual = 4.58678e-05, Final residual = 6.89521e-08, No Iterations 9
time step continuity errors : sum local = 2.42938e-10, global = -1.35244e-10, cumulative = -7.94639e-08
ExecutionTime = 0.02 s  ClockTime = 0 s

Courant Number mean: 0.00185665 max: 0.00594357
deltaT = 1.43712e-06
Time = 2.63616e-06

smoothSolver:  Solving for Ux, Initial residual = 0.920078, Final residual = 1.38143e-08, No Iterations 2
smoothSolver:  Solving for Uy, Initial residual = 0.286243, Final residual = 1.2849e-09, No Iterations 2
smoothSolver:  Solving for Uz, Initial residual = 0.348582, Final residual = 3.42051e-06, No Iterations 1
GAMG:  Solving for p, Initial residual = 0.00571442, Final residual = 4.20222e-05, No Iterations 8
time step continuity errors : sum local = 2.11861e-07, global = 1.13997e-07, cumulative = 3.45334e-08
GAMG:  Solving for p, Initial residual = 0.0506009, Final residual = 9.53219e-08, No Iterations 17
time step continuity errors : sum local = 8.70304e-13, global = 4.95888e-13, cumulative = 3.45339e-08
ExecutionTime = 0.03 s  ClockTime = 0 s

Courant Number mean: 0.00222532 max: 0.00711949
deltaT = 1.72256e-06
Time = 4.35873e-06

smoothSolver:  Solving for Ux, Initial residual = 0.00067157, Final residual = 1.02482e-08, No Iterations 1
smoothSolver:  Solving for Uy, Initial residual = 0.000286164, Final residual = 9.58496e-09, No Iterations 1
smoothSolver:  Solving for Uz, Initial residual = 0.236104, Final residual = 2.80676e-06, No Iterations 1
GAMG:  Solving for p, Initial residual = 0.00434113, Final residual = 3.60947e-05, No Iterations 4
time step continuity errors : sum local = 1.57604e-11, global = -8.72791e-12, cumulative = 3.45252e-08
GAMG:  Solving for p, Initial residual = 3.94684e-05, Final residual = 5.47048e-08, No Iterations 9
time step continuity errors : sum local = 2.51112e-14, global = -1.40299e-14, cumulative = 3.45252e-08
ExecutionTime = 0.04 s  ClockTime = 0 s

Courant Number mean: 0.00266731 max: 0.00852743
deltaT = 2.06565e-06
Time = 6.42437e-06

smoothSolver:  Solving for Ux, Initial residual = 0.000803633, Final residual = 1.62493e-08, No Iterations 1
smoothSolver:  Solving for Uy, Initial residual = 0.000341813, Final residual = 1.38214e-08, No Iterations 1
smoothSolver:  Solving for Uz, Initial residual = 0.185766, Final residual = 2.6939e-06, No Iterations 1
GAMG:  Solving for p, Initial residual = 0.00412569, Final residual = 3.22437e-05, No Iterations 1
time step continuity errors : sum local = 2.1264e-11, global = -9.03635e-13, cumulative = 3.45243e-08
GAMG:  Solving for p, Initial residual = 2.71277e-05, Final residual = 5.52725e-08, No Iterations 7
time step continuity errors : sum local = 3.63392e-14, global = -2.13088e-14, cumulative = 3.45242e-08
ExecutionTime = 0.04 s  ClockTime = 0 s

Courant Number mean: 0.00319855 max: 0.0102171
deltaT = 2.47774e-06
Time = 8.90212e-06

smoothSolver:  Solving for Ux, Initial residual = 0.000952745, Final residual = 2.37203e-08, No Iterations 1
smoothSolver:  Solving for Uy, Initial residual = 0.000408496, Final residual = 2.00573e-08, No Iterations 1
smoothSolver:  Solving for Uz, Initial residual = 0.157598, Final residual = 2.80939e-06, No Iterations 1
GAMG:  Solving for p, Initial residual = 0.00492732, Final residual = 3.72251e-05, No Iterations 1
time step continuity errors : sum local = 3.50471e-11, global = -3.72595e-15, cumulative = 3.45242e-08
GAMG:  Solving for p, Initial residual = 3.05801e-05, Final residual = 6.75496e-08, No Iterations 7
time step continuity errors : sum local = 6.33636e-14, global = 7.46444e-15, cumulative = 3.45242e-08
ExecutionTime = 0.05 s  ClockTime = 0 s

Courant Number mean: 0.00383667 max: 0.012243
deltaT = 2.96736e-06
Time = 1.18695e-05

smoothSolver:  Solving for Ux, Initial residual = 0.00112488, Final residual = 3.45411e-08, No Iterations 1
smoothSolver:  Solving for Uy, Initial residual = 0.000487107, Final residual = 2.90538e-08, No Iterations 1
smoothSolver:  Solving for Uz, Initial residual = 0.139566, Final residual = 3.0652e-06, No Iterations 1
GAMG:  Solving for p, Initial residual = 0.005877, Final residual = 4.43966e-05, No Iterations 1
time step continuity errors : sum local = 5.93807e-11, global = 1.0082e-13, cumulative = 3.45243e-08
GAMG:  Solving for p, Initial residual = 3.61562e-05, Final residual = 7.78343e-08, No Iterations 7
time step continuity errors : sum local = 1.03647e-13, global = 1.55224e-14, cumulative = 3.45244e-08
ExecutionTime = 0.05 s  ClockTime = 0 s

Courant Number mean: 0.00459481 max: 0.0146445
deltaT = 3.55443e-06
Time = 1.54239e-05

smoothSolver:  Solving for Ux, Initial residual = 0.00132464, Final residual = 5.04048e-08, No Iterations 1
smoothSolver:  Solving for Uy, Initial residual = 0.000580471, Final residual = 4.21711e-08, No Iterations 1
smoothSolver:  Solving for Uz, Initial residual = 0.127267, Final residual = 3.46001e-06, No Iterations 1
GAMG:  Solving for p, Initial residual = 0.00700217, Final residual = 5.30445e-05, No Iterations 1
time step continuity errors : sum local = 1.00644e-10, global = 9.90106e-14, cumulative = 3.45245e-08
GAMG:  Solving for p, Initial residual = 4.41447e-05, Final residual = 9.43087e-08, No Iterations 7
time step continuity errors : sum local = 1.78002e-13, global = 2.41881e-14, cumulative = 3.45245e-08
ExecutionTime = 0.06 s  ClockTime = 0 s

Courant Number mean: 0.00550386 max: 0.0175166
deltaT = 4.26223e-06
Time = 1.96861e-05

smoothSolver:  Solving for Ux, Initial residual = 0.00155643, Final residual = 7.38774e-08, No Iterations 1
smoothSolver:  Solving for Uy, Initial residual = 0.000691776, Final residual = 6.14599e-08, No Iterations 1
smoothSolver:  Solving for Uz, Initial residual = 0.118601, Final residual = 4.01372e-06, No Iterations 1
GAMG:  Solving for p, Initial residual = 0.00833989, Final residual = 6.34328e-05, No Iterations 1
time step continuity errors : sum local = 1.70721e-10, global = 1.58744e-13, cumulative = 3.45246e-08
GAMG:  Solving for p, Initial residual = 5.53795e-05, Final residual = 5.19122e-08, No Iterations 8
time step continuity errors : sum local = 1.38842e-13, global = 2.51926e-14, cumulative = 3.45247e-08
ExecutionTime = 0.06 s  ClockTime = 0 s

Courant Number mean: 0.00659987 max: 0.020969
deltaT = 5.1058e-06
Time = 2.47919e-05

smoothSolver:  Solving for Ux, Initial residual = 0.00181978, Final residual = 1.08271e-07, No Iterations 1
smoothSolver:  Solving for Uy, Initial residual = 0.000822587, Final residual = 8.95605e-08, No Iterations 1
smoothSolver:  Solving for Uz, Initial residual = 0.112064, Final residual = 4.73906e-06, No Iterations 1
GAMG:  Solving for p, Initial residual = 0.00991561, Final residual = 7.58458e-05, No Iterations 1
time step continuity errors : sum local = 2.88202e-10, global = 2.20634e-13, cumulative = 3.45249e-08
GAMG:  Solving for p, Initial residual = 7.03326e-05, Final residual = 6.23773e-08, No Iterations 8
time step continuity errors : sum local = 2.35254e-13, global = 4.11537e-14, cumulative = 3.45249e-08
ExecutionTime = 0.07 s  ClockTime = 0 s

Courant Number mean: 0.0079061 max: 0.0250687
deltaT = 6.09505e-06
Time = 3.0887e-05

smoothSolver:  Solving for Ux, Initial residual = 0.00211127, Final residual = 1.57847e-07, No Iterations 1
smoothSolver:  Solving for Uy, Initial residual = 0.000973329, Final residual = 1.29827e-07, No Iterations 1
smoothSolver:  Solving for Uz, Initial residual = 0.106885, Final residual = 5.64795e-06, No Iterations 1
GAMG:  Solving for p, Initial residual = 0.0117432, Final residual = 9.04931e-05, No Iterations 1
time step continuity errors : sum local = 4.80637e-10, global = 4.03495e-13, cumulative = 3.45253e-08
GAMG:  Solving for p, Initial residual = 9.04162e-05, Final residual = 7.45298e-08, No Iterations 8
time step continuity errors : sum local = 3.92328e-13, global = 6.93041e-14, cumulative = 3.45254e-08
ExecutionTime = 0.08 s  ClockTime = 0 s

Courant Number mean: 0.0094379 max: 0.0298551
deltaT = 7.28656e-06
Time = 3.81736e-05

smoothSolver:  Solving for Ux, Initial residual = 0.00244139, Final residual = 2.31318e-07, No Iterations 1
smoothSolver:  Solving for Uy, Initial residual = 0.00115145, Final residual = 1.89195e-07, No Iterations 1
smoothSolver:  Solving for Uz, Initial residual = 0.103236, Final residual = 6.85282e-06, No Iterations 1
GAMG:  Solving for p, Initial residual = 0.0138982, Final residual = 0.000108122, No Iterations 1
time step continuity errors : sum local = 8.02052e-10, global = 6.83746e-13, cumulative = 3.45261e-08
GAMG:  Solving for p, Initial residual = 0.000119235, Final residual = 8.97774e-08, No Iterations 8
time step continuity errors : sum local = 6.58914e-13, global = 1.15765e-13, cumulative = 3.45262e-08
ExecutionTime = 0.08 s  ClockTime = 0 s

Courant Number mean: 0.0112829 max: 0.0355927
deltaT = 8.74388e-06
Time = 4.69174e-05

smoothSolver:  Solving for Ux, Initial residual = 0.00281965, Final residual = 3.42417e-07, No Iterations 1
smoothSolver:  Solving for Uy, Initial residual = 0.00136461, Final residual = 2.78598e-07, No Iterations 1
smoothSolver:  Solving for Uz, Initial residual = 0.100821, Final residual = 8.49268e-06, No Iterations 1
GAMG:  Solving for p, Initial residual = 0.0164608, Final residual = 0.000129793, No Iterations 1
time step continuity errors : sum local = 1.34879e-09, global = 1.16253e-12, cumulative = 3.45274e-08
GAMG:  Solving for p, Initial residual = 0.000160862, Final residual = 5.04709e-08, No Iterations 9
time step continuity errors : sum local = 5.17851e-13, global = 1.1552e-13, cumulative = 3.45275e-08
ExecutionTime = 0.09 s  ClockTime = 0 s

Courant Number mean: 0.0135395 max: 0.0425728
deltaT = 1.04734e-05
Time = 5.73909e-05

smoothSolver:  Solving for Ux, Initial residual = 0.00323512, Final residual = 5.05659e-07, No Iterations 1
smoothSolver:  Solving for Uy, Initial residual = 0.00161034, Final residual = 4.09588e-07, No Iterations 1
smoothSolver:  Solving for Uz, Initial residual = 0.0987368, Final residual = 8.01414e-09, No Iterations 2
GAMG:  Solving for p, Initial residual = 0.0194211, Final residual = 0.000156185, No Iterations 1
time step continuity errors : sum local = 2.2555e-09, global = 1.71637e-12, cumulative = 3.45292e-08
GAMG:  Solving for p, Initial residual = 0.000221416, Final residual = 6.16379e-08, No Iterations 9
time step continuity errors : sum local = 8.77456e-13, global = 1.90906e-13, cumulative = 3.45294e-08
ExecutionTime = 0.09 s  ClockTime = 0 s

Courant Number mean: 0.0162177 max: 0.0508011
deltaT = 1.25681e-05
Time = 6.9959e-05

smoothSolver:  Solving for Ux, Initial residual = 0.00369243, Final residual = 7.50579e-07, No Iterations 1
smoothSolver:  Solving for Uy, Initial residual = 0.00189838, Final residual = 6.06058e-07, No Iterations 1
smoothSolver:  Solving for Uz, Initial residual = 0.0972324, Final residual = 1.16098e-08, No Iterations 2
GAMG:  Solving for p, Initial residual = 0.0228049, Final residual = 0.000188381, No Iterations 1
time step continuity errors : sum local = 3.77714e-09, global = 3.08889e-12, cumulative = 3.45325e-08
GAMG:  Solving for p, Initial residual = 0.000310372, Final residual = 7.55567e-08, No Iterations 9
time step continuity errors : sum local = 1.49029e-12, global = 3.22854e-13, cumulative = 3.45328e-08
ExecutionTime = 0.1 s  ClockTime = 0 s

Courant Number mean: 0.0194612 max: 0.0606941
deltaT = 1.50007e-05
Time = 8.49596e-05

smoothSolver:  Solving for Ux, Initial residual = 0.00415579, Final residual = 1.10043e-06, No Iterations 1
smoothSolver:  Solving for Uy, Initial residual = 0.00221836, Final residual = 8.87952e-07, No Iterations 1
smoothSolver:  Solving for Uz, Initial residual = 0.0953944, Final residual = 1.66756e-08, No Iterations 2
GAMG:  Solving for p, Initial residual = 0.0265601, Final residual = 0.000226523, No Iterations 1
time step continuity errors : sum local = 6.20277e-09, global = 5.19635e-12, cumulative = 3.4538e-08
GAMG:  Solving for p, Initial residual = 0.000437812, Final residual = 9.2225e-08, No Iterations 9
time step continuity errors : sum local = 2.47706e-12, global = 5.304e-13, cumulative = 3.45385e-08
ExecutionTime = 0.11 s  ClockTime = 0 s

Courant Number mean: 0.0232279 max: 0.0720768
deltaT = 1.7942e-05
Time = 0.000102902

smoothSolver:  Solving for Ux, Initial residual = 0.00463945, Final residual = 1.61926e-06, No Iterations 1
smoothSolver:  Solving for Uy, Initial residual = 0.0025877, Final residual = 1.30914e-06, No Iterations 1
smoothSolver:  Solving for Uz, Initial residual = 0.0939131, Final residual = 2.43491e-08, No Iterations 2
GAMG:  Solving for p, Initial residual = 0.0307437, Final residual = 0.000273563, No Iterations 1
time step continuity errors : sum local = 1.02041e-08, global = 8.672e-12, cumulative = 3.45472e-08
GAMG:  Solving for p, Initial residual = 0.000622562, Final residual = 5.23914e-08, No Iterations 10
time step continuity errors : sum local = 1.91186e-12, global = 4.9592e-13, cumulative = 3.45477e-08
ExecutionTime = 0.12 s  ClockTime = 0 s

Courant Number mean: 0.0277824 max: 0.0857141
deltaT = 2.13595e-05
Time = 0.000124261

smoothSolver:  Solving for Ux, Initial residual = 0.00509272, Final residual = 2.35149e-06, No Iterations 1
smoothSolver:  Solving for Uy, Initial residual = 0.00299124, Final residual = 1.91131e-06, No Iterations 1
smoothSolver:  Solving for Uz, Initial residual = 0.0921403, Final residual = 3.54453e-08, No Iterations 2
GAMG:  Solving for p, Initial residual = 0.0348346, Final residual = 0.000326142, No Iterations 1
time step continuity errors : sum local = 1.64717e-08, global = 1.3127e-11, cumulative = 3.45608e-08
GAMG:  Solving for p, Initial residual = 0.000862049, Final residual = 6.19474e-08, No Iterations 10
time step continuity errors : sum local = 3.08615e-12, global = 7.86523e-13, cumulative = 3.45616e-08
ExecutionTime = 0.12 s  ClockTime = 0 s

Courant Number mean: 0.0330743 max: 0.10138
deltaT = 2.50211e-05
Time = 0.000149282

smoothSolver:  Solving for Ux, Initial residual = 0.00542759, Final residual = 3.28023e-06, No Iterations 1
smoothSolver:  Solving for Uy, Initial residual = 0.0033938, Final residual = 2.69164e-06, No Iterations 1
smoothSolver:  Solving for Uz, Initial residual = 0.0894227, Final residual = 4.97161e-08, No Iterations 2
GAMG:  Solving for p, Initial residual = 0.0379608, Final residual = 0.000377535, No Iterations 1
time step continuity errors : sum local = 2.52548e-08, global = 2.15142e-11, cumulative = 3.45831e-08
GAMG:  Solving for p, Initial residual = 0.00113887, Final residual = 7.06554e-08, No Iterations 10
time step continuity errors : sum local = 4.67185e-12, global = 1.18649e-12, cumulative = 3.45843e-08
ExecutionTime = 0.13 s  ClockTime = 0 s

Courant Number mean: 0.0387443 max: 0.117913
deltaT = 2.93351e-05
Time = 0.000178617

smoothSolver:  Solving for Ux, Initial residual = 0.00574127, Final residual = 4.57121e-06, No Iterations 1
smoothSolver:  Solving for Uy, Initial residual = 0.00385439, Final residual = 3.80382e-06, No Iterations 1
smoothSolver:  Solving for Uz, Initial residual = 0.087238, Final residual = 7.11618e-08, No Iterations 2
GAMG:  Solving for p, Initial residual = 0.0404769, Final residual = 0.000138124, No Iterations 2
time step continuity errors : sum local = 1.22329e-08, global = 1.99357e-11, cumulative = 3.46042e-08
GAMG:  Solving for p, Initial residual = 0.00158634, Final residual = 4.77013e-08, No Iterations 10
time step continuity errors : sum local = 4.16326e-12, global = 1.20109e-12, cumulative = 3.46054e-08
ExecutionTime = 0.14 s  ClockTime = 0 s

Courant Number mean: 0.0454244 max: 0.137167
deltaT = 3.42243e-05
Time = 0.000212842

smoothSolver:  Solving for Ux, Initial residual = 0.00606898, Final residual = 6.28681e-06, No Iterations 1
smoothSolver:  Solving for Uy, Initial residual = 0.00434958, Final residual = 5.31412e-06, No Iterations 1
smoothSolver:  Solving for Uz, Initial residual = 0.0850093, Final residual = 1.02215e-07, No Iterations 2
GAMG:  Solving for p, Initial residual = 0.042267, Final residual = 0.000163157, No Iterations 2
time step continuity errors : sum local = 1.88204e-08, global = 2.95183e-11, cumulative = 3.4635e-08
GAMG:  Solving for p, Initial residual = 0.00199144, Final residual = 5.58641e-08, No Iterations 10
time step continuity errors : sum local = 6.33204e-12, global = 1.80946e-12, cumulative = 3.46368e-08
ExecutionTime = 0.14 s  ClockTime = 0 s

Courant Number mean: 0.0529952 max: 0.158689
deltaT = 3.93579e-05
Time = 0.0002522

smoothSolver:  Solving for Ux, Initial residual = 0.00634882, Final residual = 8.41996e-06, No Iterations 1
smoothSolver:  Solving for Uy, Initial residual = 0.00492518, Final residual = 7.17465e-06, No Iterations 1
smoothSolver:  Solving for Uz, Initial residual = 0.0819475, Final residual = 1.42772e-07, No Iterations 2
GAMG:  Solving for p, Initial residual = 0.043186, Final residual = 0.000183941, No Iterations 2
time step continuity errors : sum local = 2.66802e-08, global = 4.56047e-11, cumulative = 3.46824e-08
GAMG:  Solving for p, Initial residual = 0.00241686, Final residual = 6.32253e-08, No Iterations 10
time step continuity errors : sum local = 8.97938e-12, global = 2.56551e-12, cumulative = 3.46849e-08
ExecutionTime = 0.15 s  ClockTime = 0 s

Courant Number mean: 0.0609445 max: 0.180884
deltaT = 4.67375e-05
Time = 0.000298937

smoothSolver:  Solving for Ux, Initial residual = 0.00697629, Final residual = 3.77053e-08, No Iterations 2
smoothSolver:  Solving for Uy, Initial residual = 0.00572693, Final residual = 2.70715e-08, No Iterations 2
smoothSolver:  Solving for Uz, Initial residual = 0.0814297, Final residual = 2.2657e-07, No Iterations 2
GAMG:  Solving for p, Initial residual = 0.0451504, Final residual = 0.000214993, No Iterations 2
time step continuity errors : sum local = 4.12782e-08, global = 7.27634e-11, cumulative = 3.47577e-08
GAMG:  Solving for p, Initial residual = 0.00304897, Final residual = 7.38012e-08, No Iterations 10
time step continuity errors : sum local = 1.38132e-11, global = 3.97185e-12, cumulative = 3.47617e-08
ExecutionTime = 0.16 s  ClockTime = 0 s

Courant Number mean: 0.0723717 max: 0.212766
deltaT = 5.39279e-05
Time = 0.000352865

smoothSolver:  Solving for Ux, Initial residual = 0.00763282, Final residual = 5.97418e-08, No Iterations 2
smoothSolver:  Solving for Uy, Initial residual = 0.00646074, Final residual = 4.35208e-08, No Iterations 2
smoothSolver:  Solving for Uz, Initial residual = 0.0785458, Final residual = 3.30179e-07, No Iterations 2
GAMG:  Solving for p, Initial residual = 0.0466613, Final residual = 0.000236849, No Iterations 2
time step continuity errors : sum local = 5.64595e-08, global = 1.12448e-10, cumulative = 3.48741e-08
GAMG:  Solving for p, Initial residual = 0.00368113, Final residual = 8.28351e-08, No Iterations 10
time step continuity errors : sum local = 1.91742e-11, global = 5.58424e-12, cumulative = 3.48797e-08
ExecutionTime = 0.16 s  ClockTime = 0 s

Courant Number mean: 0.083506 max: 0.243083
deltaT = 6.47135e-05
Time = 0.000417578

smoothSolver:  Solving for Ux, Initial residual = 0.00859733, Final residual = 1.08813e-07, No Iterations 2
smoothSolver:  Solving for Uy, Initial residual = 0.00752273, Final residual = 8.05664e-08, No Iterations 2
smoothSolver:  Solving for Uz, Initial residual = 0.0787071, Final residual = 5.68436e-07, No Iterations 2
GAMG:  Solving for p, Initial residual = 0.0496016, Final residual = 0.000271512, No Iterations 2
time step continuity errors : sum local = 8.54293e-08, global = 1.86707e-10, cumulative = 3.50664e-08
GAMG:  Solving for p, Initial residual = 0.00462374, Final residual = 9.72631e-08, No Iterations 10
time step continuity errors : sum local = 2.95259e-11, global = 8.78557e-12, cumulative = 3.50752e-08
ExecutionTime = 0.17 s  ClockTime = 0 s

Courant Number mean: 0.100207 max: 0.288618
deltaT = 7.28027e-05
Time = 0.000490381

smoothSolver:  Solving for Ux, Initial residual = 0.00896536, Final residual = 1.59418e-07, No Iterations 2
smoothSolver:  Solving for Uy, Initial residual = 0.00826869, Final residual = 1.19728e-07, No Iterations 2
smoothSolver:  Solving for Uz, Initial residual = 0.0741314, Final residual = 7.85625e-07, No Iterations 2
GAMG:  Solving for p, Initial residual = 0.0548591, Final residual = 0.000283322, No Iterations 2
time step continuity errors : sum local = 1.02987e-07, global = 2.72455e-10, cumulative = 3.53477e-08
GAMG:  Solving for p, Initial residual = 0.00538389, Final residual = 4.99049e-08, No Iterations 11
time step continuity errors : sum local = 1.73913e-11, global = 6.0676e-12, cumulative = 3.53537e-08
ExecutionTime = 0.18 s  ClockTime = 0 s

Courant Number mean: 0.11274 max: 0.321218
deltaT = 8.49365e-05
Time = 0.000575318

smoothSolver:  Solving for Ux, Initial residual = 0.00971344, Final residual = 2.66191e-07, No Iterations 2
smoothSolver:  Solving for Uy, Initial residual = 0.00949711, Final residual = 2.03874e-07, No Iterations 2
smoothSolver:  Solving for Uz, Initial residual = 0.0728982, Final residual = 1.27192e-06, No Iterations 2
GAMG:  Solving for p, Initial residual = 0.0612969, Final residual = 0.000311061, No Iterations 2
time step continuity errors : sum local = 1.38717e-07, global = 4.55708e-10, cumulative = 3.58094e-08
GAMG:  Solving for p, Initial residual = 0.0065399, Final residual = 5.38836e-08, No Iterations 11
time step continuity errors : sum local = 2.3066e-11, global = 8.47083e-12, cumulative = 3.58179e-08
ExecutionTime = 0.18 s  ClockTime = 0 s

Courant Number mean: 0.131538 max: 0.370511
deltaT = 8.49365e-05
Time = 0.000660254

smoothSolver:  Solving for Ux, Initial residual = 0.00906725, Final residual = 2.59462e-07, No Iterations 2
smoothSolver:  Solving for Uy, Initial residual = 0.00933039, Final residual = 2.01976e-07, No Iterations 2
smoothSolver:  Solving for Uz, Initial residual = 0.062983, Final residual = 1.16309e-06, No Iterations 2
GAMG:  Solving for p, Initial residual = 0.0627529, Final residual = 0.000284631, No Iterations 2
time step continuity errors : sum local = 1.17541e-07, global = 5.55545e-10, cumulative = 3.63734e-08
GAMG:  Solving for p, Initial residual = 0.00654713, Final residual = 9.98259e-08, No Iterations 10
time step continuity errors : sum local = 3.95558e-11, global = 1.39105e-11, cumulative = 3.63874e-08
ExecutionTime = 0.19 s  ClockTime = 0 s

Courant Number mean: 0.131552 max: 0.36659
deltaT = 8.49365e-05
Time = 0.000745191

smoothSolver:  Solving for Ux, Initial residual = 0.00852083, Final residual = 2.54411e-07, No Iterations 2
smoothSolver:  Solving for Uy, Initial residual = 0.00926522, Final residual = 2.01378e-07, No Iterations 2
smoothSolver:  Solving for Uz, Initial residual = 0.0554908, Final residual = 1.08512e-06, No Iterations 2
GAMG:  Solving for p, Initial residual = 0.0610448, Final residual = 0.000266167, No Iterations 2
time step continuity errors : sum local = 1.02197e-07, global = 5.85115e-10, cumulative = 3.69725e-08
GAMG:  Solving for p, Initial residual = 0.00620222, Final residual = 8.69043e-08, No Iterations 10
time step continuity errors : sum local = 3.21653e-11, global = 1.19798e-11, cumulative = 3.69845e-08
ExecutionTime = 0.2 s  ClockTime = 0 s

Courant Number mean: 0.131565 max: 0.362877
deltaT = 8.49365e-05
Time = 0.000830127

smoothSolver:  Solving for Ux, Initial residual = 0.00810458, Final residual = 2.50551e-07, No Iterations 2
smoothSolver:  Solving for Uy, Initial residual = 0.00914633, Final residual = 2.01472e-07, No Iterations 2
smoothSolver:  Solving for Uz, Initial residual = 0.0495177, Final residual = 1.02616e-06, No Iterations 2
GAMG:  Solving for p, Initial residual = 0.0590859, Final residual = 0.000262437, No Iterations 2
time step continuity errors : sum local = 9.45634e-08, global = 7.17486e-10, cumulative = 3.77019e-08
GAMG:  Solving for p, Initial residual = 0.00585642, Final residual = 7.52936e-08, No Iterations 10
time step continuity errors : sum local = 2.63206e-11, global = 1.0457e-11, cumulative = 3.77124e-08
ExecutionTime = 0.2 s  ClockTime = 0 s

Courant Number mean: 0.13158 max: 0.359288
deltaT = 8.49365e-05
Time = 0.000915064

smoothSolver:  Solving for Ux, Initial residual = 0.00776301, Final residual = 2.476e-07, No Iterations 2
smoothSolver:  Solving for Uy, Initial residual = 0.00898867, Final residual = 2.02377e-07, No Iterations 2
smoothSolver:  Solving for Uz, Initial residual = 0.0444825, Final residual = 9.77485e-07, No Iterations 2
GAMG:  Solving for p, Initial residual = 0.0558293, Final residual = 0.00028043, No Iterations 2
time step continuity errors : sum local = 9.59868e-08, global = 8.52612e-10, cumulative = 3.8565e-08
GAMG:  Solving for p, Initial residual = 0.00543675, Final residual = 6.49784e-08, No Iterations 10
time step continuity errors : sum local = 2.17256e-11, global = 9.0118e-12, cumulative = 3.8574e-08
ExecutionTime = 0.21 s  ClockTime = 0 s

Courant Number mean: 0.131606 max: 0.355762
deltaT = 8.49365e-05
Time = 0.001

smoothSolver:  Solving for Ux, Initial residual = 0.00750232, Final residual = 2.45225e-07, No Iterations 2
smoothSolver:  Solving for Uy, Initial residual = 0.00884537, Final residual = 2.04219e-07, No Iterations 2
smoothSolver:  Solving for Uz, Initial residual = 0.0403739, Final residual = 9.4059e-07, No Iterations 2
GAMG:  Solving for p, Initial residual = 0.0511069, Final residual = 0.000310862, No Iterations 2
time step continuity errors : sum local = 1.02283e-07, global = 1.03307e-09, cumulative = 3.96071e-08
GAMG:  Solving for p, Initial residual = 0.00499668, Final residual = 5.27639e-08, No Iterations 10
time step continuity errors : sum local = 1.70511e-11, global = 7.28521e-12, cumulative = 3.96144e-08
ExecutionTime = 0.22 s  ClockTime = 0 s

Courant Number mean: 0.131638 max: 0.352249
deltaT = 0.0001
Time = 0.0011

smoothSolver:  Solving for Ux, Initial residual = 0.00858053, Final residual = 4.28236e-07, No Iterations 2
smoothSolver:  Solving for Uy, Initial residual = 0.0102681, Final residual = 3.65502e-07, No Iterations 2
smoothSolver:  Solving for Uz, Initial residual = 0.0435026, Final residual = 1.71258e-06, No Iterations 2
GAMG:  Solving for p, Initial residual = 0.0510135, Final residual = 0.000368095, No Iterations 2
time step continuity errors : sum local = 1.57385e-07, global = 1.51561e-09, cumulative = 4.113e-08
GAMG:  Solving for p, Initial residual = 0.00584066, Final residual = 5.79403e-08, No Iterations 10
time step continuity errors : sum local = 2.43117e-11, global = 1.04406e-11, cumulative = 4.11404e-08
ExecutionTime = 0.23 s  ClockTime = 0 s

Courant Number mean: 0.155047 max: 0.409902
deltaT = 0.0001125
Time = 0.0012125

smoothSolver:  Solving for Ux, Initial residual = 0.0093517, Final residual = 6.40287e-07, No Iterations 2
smoothSolver:  Solving for Uy, Initial residual = 0.0113498, Final residual = 5.60974e-07, No Iterations 2
smoothSolver:  Solving for Uz, Initial residual = 0.0446382, Final residual = 2.62107e-06, No Iterations 2
GAMG:  Solving for p, Initial residual = 0.0528936, Final residual = 0.000482856, No Iterations 2
time step continuity errors : sum local = 2.45756e-07, global = 2.07841e-09, cumulative = 4.32188e-08
GAMG:  Solving for p, Initial residual = 0.00690833, Final residual = 6.20921e-08, No Iterations 10
time step continuity errors : sum local = 3.0965e-11, global = 1.3227e-11, cumulative = 4.32321e-08
ExecutionTime = 0.24 s  ClockTime = 0 s

Courant Number mean: 0.174499 max: 0.455077
deltaT = 0.00013125
Time = 0.00134375

smoothSolver:  Solving for Ux, Initial residual = 0.0105366, Final residual = 1.09269e-06, No Iterations 2
smoothSolver:  Solving for Uy, Initial residual = 0.0129593, Final residual = 9.88292e-07, No Iterations 2
smoothSolver:  Solving for Uz, Initial residual = 0.0467456, Final residual = 4.63481e-06, No Iterations 2
GAMG:  Solving for p, Initial residual = 0.05777, Final residual = 0.000204247, No Iterations 3
time step continuity errors : sum local = 1.30969e-07, global = 2.42796e-09, cumulative = 4.566e-08
GAMG:  Solving for p, Initial residual = 0.00851429, Final residual = 6.65287e-08, No Iterations 10
time step continuity errors : sum local = 4.15833e-11, global = 2.00785e-11, cumulative = 4.56801e-08
ExecutionTime = 0.25 s  ClockTime = 0 s

Courant Number mean: 0.203668 max: 0.523786
deltaT = 0.00013125
Time = 0.001475

smoothSolver:  Solving for Ux, Initial residual = 0.0102279, Final residual = 1.0863e-06, No Iterations 2
smoothSolver:  Solving for Uy, Initial residual = 0.0127712, Final residual = 1.00536e-06, No Iterations 2
smoothSolver:  Solving for Uz, Initial residual = 0.0419986, Final residual = 4.49937e-06, No Iterations 2
GAMG:  Solving for p, Initial residual = 0.0602551, Final residual = 0.000247064, No Iterations 3
time step continuity errors : sum local = 1.51737e-07, global = 2.48853e-09, cumulative = 4.81686e-08
GAMG:  Solving for p, Initial residual = 0.00877964, Final residual = 6.98517e-08, No Iterations 10
time step continuity errors : sum local = 4.1944e-11, global = 1.96285e-11, cumulative = 4.81883e-08
ExecutionTime = 0.25 s  ClockTime = 0 s

Courant Number mean: 0.203768 max: 0.521246
deltaT = 0.00013125
Time = 0.00160625

smoothSolver:  Solving for Ux, Initial residual = 0.00993918, Final residual = 1.08621e-06, No Iterations 2
smoothSolver:  Solving for Uy, Initial residual = 0.0125985, Final residual = 1.02636e-06, No Iterations 2
smoothSolver:  Solving for Uz, Initial residual = 0.0385764, Final residual = 4.40372e-06, No Iterations 2
GAMG:  Solving for p, Initial residual = 0.0570399, Final residual = 0.000264163, No Iterations 3
time step continuity errors : sum local = 1.57228e-07, global = 2.35864e-09, cumulative = 5.05469e-08
GAMG:  Solving for p, Initial residual = 0.00839134, Final residual = 7.67771e-08, No Iterations 10
time step continuity errors : sum local = 4.52617e-11, global = 2.0714e-11, cumulative = 5.05676e-08
ExecutionTime = 0.26 s  ClockTime = 0 s

Courant Number mean: 0.203862 max: 0.518438
deltaT = 0.00013125
Time = 0.0017375

smoothSolver:  Solving for Ux, Initial residual = 0.00972777, Final residual = 1.08928e-06, No Iterations 2
smoothSolver:  Solving for Uy, Initial residual = 0.012545, Final residual = 1.04921e-06, No Iterations 2
smoothSolver:  Solving for Uz, Initial residual = 0.0357695, Final residual = 4.34859e-06, No Iterations 2
GAMG:  Solving for p, Initial residual = 0.0536192, Final residual = 0.000277302, No Iterations 3
time step continuity errors : sum local = 1.62031e-07, global = 2.23771e-09, cumulative = 5.28053e-08
GAMG:  Solving for p, Initial residual = 0.00809718, Final residual = 8.73691e-08, No Iterations 10
time step continuity errors : sum local = 5.05683e-11, global = 2.25718e-11, cumulative = 5.28279e-08
ExecutionTime = 0.27 s  ClockTime = 0 s

Courant Number mean: 0.203953 max: 0.515353
deltaT = 0.00013125
Time = 0.00186875

smoothSolver:  Solving for Ux, Initial residual = 0.00955181, Final residual = 1.09487e-06, No Iterations 2
smoothSolver:  Solving for Uy, Initial residual = 0.0125083, Final residual = 1.07253e-06, No Iterations 2
smoothSolver:  Solving for Uz, Initial residual = 0.033293, Final residual = 4.30977e-06, No Iterations 2
GAMG:  Solving for p, Initial residual = 0.0511227, Final residual = 0.00028892, No Iterations 3
time step continuity errors : sum local = 1.65936e-07, global = 2.13265e-09, cumulative = 5.49605e-08
GAMG:  Solving for p, Initial residual = 0.00782298, Final residual = 9.76746e-08, No Iterations 10
time step continuity errors : sum local = 5.56268e-11, global = 2.43055e-11, cumulative = 5.49849e-08
ExecutionTime = 0.28 s  ClockTime = 0 s

Courant Number mean: 0.204049 max: 0.511989
deltaT = 0.00013125
Time = 0.002

smoothSolver:  Solving for Ux, Initial residual = 0.0093922, Final residual = 1.10232e-06, No Iterations 2
smoothSolver:  Solving for Uy, Initial residual = 0.0124364, Final residual = 1.09616e-06, No Iterations 2
smoothSolver:  Solving for Uz, Initial residual = 0.0314849, Final residual = 4.28812e-06, No Iterations 2
GAMG:  Solving for p, Initial residual = 0.0497223, Final residual = 0.000298674, No Iterations 3
time step continuity errors : sum local = 1.68999e-07, global = 2.0499e-09, cumulative = 5.70348e-08
GAMG:  Solving for p, Initial residual = 0.00750955, Final residual = 5.18415e-08, No Iterations 11
time step continuity errors : sum local = 2.91386e-11, global = 1.31992e-11, cumulative = 5.7048e-08
ExecutionTime = 0.29 s  ClockTime = 0 s

Courant Number mean: 0.204152 max: 0.508355
deltaT = 0.000142857
Time = 0.00214286

smoothSolver:  Solving for Ux, Initial residual = 0.0100235, Final residual = 1.49933e-06, No Iterations 2
smoothSolver:  Solving for Uy, Initial residual = 0.0134765, Final residual = 1.51677e-06, No Iterations 2
smoothSolver:  Solving for Uz, Initial residual = 0.0324189, Final residual = 5.89957e-06, No Iterations 2
GAMG:  Solving for p, Initial residual = 0.0516589, Final residual = 0.000322618, No Iterations 3
time step continuity errors : sum local = 2.09899e-07, global = 2.42218e-09, cumulative = 5.94701e-08
GAMG:  Solving for p, Initial residual = 0.0081276, Final residual = 6.01013e-08, No Iterations 11
time step continuity errors : sum local = 3.88865e-11, global = 1.75611e-11, cumulative = 5.94877e-08
ExecutionTime = 0.3 s  ClockTime = 0 s

Courant Number mean: 0.22233 max: 0.548702
deltaT = 0.000171429
Time = 0.00231429

smoothSolver:  Solving for Ux, Initial residual = 0.0117812, Final residual = 2.88928e-06, No Iterations 2
smoothSolver:  Solving for Uy, Initial residual = 0.0160517, Final residual = 2.97148e-06, No Iterations 2
smoothSolver:  Solving for Uz, Initial residual = 0.036303, Final residual = 4.97313e-07, No Iterations 3
GAMG:  Solving for p, Initial residual = 0.0584229, Final residual = 0.000382625, No Iterations 3
time step continuity errors : sum local = 3.41936e-07, global = 3.79399e-09, cumulative = 6.32817e-08
GAMG:  Solving for p, Initial residual = 0.010209, Final residual = 7.78249e-08, No Iterations 11
time step continuity errors : sum local = 6.95112e-11, global = 3.16718e-11, cumulative = 6.33134e-08
ExecutionTime = 0.31 s  ClockTime = 0 s

Courant Number mean: 0.266982 max: 0.654195
deltaT = 0.000171429
Time = 0.00248571

smoothSolver:  Solving for Ux, Initial residual = 0.0115196, Final residual = 2.92244e-06, No Iterations 2
smoothSolver:  Solving for Uy, Initial residual = 0.0158816, Final residual = 3.0245e-06, No Iterations 2
smoothSolver:  Solving for Uz, Initial residual = 0.0343122, Final residual = 5.1458e-07, No Iterations 3
GAMG:  Solving for p, Initial residual = 0.0609192, Final residual = 0.000416513, No Iterations 3
time step continuity errors : sum local = 3.74e-07, global = 3.8815e-09, cumulative = 6.71949e-08
GAMG:  Solving for p, Initial residual = 0.0105289, Final residual = 8.60995e-08, No Iterations 11
time step continuity errors : sum local = 7.75866e-11, global = 3.51897e-11, cumulative = 6.723e-08
ExecutionTime = 0.32 s  ClockTime = 0 s

Courant Number mean: 0.2672 max: 0.654062
deltaT = 0.000171429
Time = 0.00265714

smoothSolver:  Solving for Ux, Initial residual = 0.0113038, Final residual = 2.96307e-06, No Iterations 2
smoothSolver:  Solving for Uy, Initial residual = 0.0157541, Final residual = 3.07934e-06, No Iterations 2
smoothSolver:  Solving for Uz, Initial residual = 0.0326934, Final residual = 5.33375e-07, No Iterations 3
GAMG:  Solving for p, Initial residual = 0.0581066, Final residual = 0.000411779, No Iterations 3
time step continuity errors : sum local = 3.72451e-07, global = 3.85398e-09, cumulative = 7.1084e-08
GAMG:  Solving for p, Initial residual = 0.0101007, Final residual = 8.676e-08, No Iterations 11
time step continuity errors : sum local = 7.88245e-11, global = 3.57692e-11, cumulative = 7.11198e-08
ExecutionTime = 0.33 s  ClockTime = 0 s

Courant Number mean: 0.267438 max: 0.653197
deltaT = 0.000171429
Time = 0.00282857

smoothSolver:  Solving for Ux, Initial residual = 0.0111506, Final residual = 3.00433e-06, No Iterations 2
smoothSolver:  Solving for Uy, Initial residual = 0.0156299, Final residual = 3.13222e-06, No Iterations 2
smoothSolver:  Solving for Uz, Initial residual = 0.0310475, Final residual = 5.53171e-07, No Iterations 3
GAMG:  Solving for p, Initial residual = 0.0555539, Final residual = 0.000406307, No Iterations 3
time step continuity errors : sum local = 3.70997e-07, global = 3.71448e-09, cumulative = 7.48343e-08
GAMG:  Solving for p, Initial residual = 0.00987992, Final residual = 8.81361e-08, No Iterations 11
time step continuity errors : sum local = 8.08546e-11, global = 3.66729e-11, cumulative = 7.48709e-08
ExecutionTime = 0.33 s  ClockTime = 0 s

Courant Number mean: 0.267684 max: 0.651613
deltaT = 0.000171429
Time = 0.003

smoothSolver:  Solving for Ux, Initial residual = 0.0109979, Final residual = 3.04627e-06, No Iterations 2
smoothSolver:  Solving for Uy, Initial residual = 0.0154741, Final residual = 3.21167e-06, No Iterations 2
smoothSolver:  Solving for Uz, Initial residual = 0.029859, Final residual = 5.74182e-07, No Iterations 3
GAMG:  Solving for p, Initial residual = 0.0525187, Final residual = 0.000400461, No Iterations 3
time step continuity errors : sum local = 3.68361e-07, global = 3.52623e-09, cumulative = 7.83972e-08
GAMG:  Solving for p, Initial residual = 0.00966477, Final residual = 8.9384e-08, No Iterations 11
time step continuity errors : sum local = 8.25071e-11, global = 3.74446e-11, cumulative = 7.84346e-08
ExecutionTime = 0.34 s  ClockTime = 0 s

Courant Number mean: 0.267948 max: 0.649364
deltaT = 0.0002
Time = 0.0032

smoothSolver:  Solving for Ux, Initial residual = 0.0126232, Final residual = 5.34245e-06, No Iterations 2
smoothSolver:  Solving for Uy, Initial residual = 0.017835, Final residual = 5.68262e-06, No Iterations 2
smoothSolver:  Solving for Uz, Initial residual = 0.0330956, Final residual = 1.0892e-06, No Iterations 3
GAMG:  Solving for p, Initial residual = 0.0545124, Final residual = 0.000435219, No Iterations 3
time step continuity errors : sum local = 5.25832e-07, global = 4.98137e-09, cumulative = 8.3416e-08
GAMG:  Solving for p, Initial residual = 0.0115297, Final residual = 5.14006e-08, No Iterations 12
time step continuity errors : sum local = 6.21001e-11, global = 2.99194e-11, cumulative = 8.34459e-08
ExecutionTime = 0.35 s  ClockTime = 0 s

Courant Number mean: 0.312946 max: 0.753542
deltaT = 0.0002
Time = 0.0034

smoothSolver:  Solving for Ux, Initial residual = 0.0124154, Final residual = 5.43207e-06, No Iterations 2
smoothSolver:  Solving for Uy, Initial residual = 0.0175886, Final residual = 5.84201e-06, No Iterations 2
smoothSolver:  Solving for Uz, Initial residual = 0.0316891, Final residual = 1.10834e-06, No Iterations 3
GAMG:  Solving for p, Initial residual = 0.057711, Final residual = 0.000465956, No Iterations 3
time step continuity errors : sum local = 5.63758e-07, global = 5.03192e-09, cumulative = 8.84778e-08
GAMG:  Solving for p, Initial residual = 0.0119683, Final residual = 5.51646e-08, No Iterations 12
time step continuity errors : sum local = 6.68425e-11, global = 3.21771e-11, cumulative = 8.851e-08
ExecutionTime = 0.36 s  ClockTime = 0 s

Courant Number mean: 0.313287 max: 0.74864
deltaT = 0.0002
Time = 0.0036

smoothSolver:  Solving for Ux, Initial residual = 0.0121739, Final residual = 5.54351e-06, No Iterations 2
smoothSolver:  Solving for Uy, Initial residual = 0.0174721, Final residual = 6.00086e-06, No Iterations 2
smoothSolver:  Solving for Uz, Initial residual = 0.0305897, Final residual = 1.11252e-06, No Iterations 3
GAMG:  Solving for p, Initial residual = 0.0580425, Final residual = 0.00045964, No Iterations 3
time step continuity errors : sum local = 5.5877e-07, global = 5.09743e-09, cumulative = 9.36074e-08
GAMG:  Solving for p, Initial residual = 0.0115746, Final residual = 5.47637e-08, No Iterations 12
time step continuity errors : sum local = 6.67457e-11, global = 3.22219e-11, cumulative = 9.36397e-08
ExecutionTime = 0.37 s  ClockTime = 0 s

Courant Number mean: 0.313648 max: 0.746192
deltaT = 0.0002
Time = 0.0038

smoothSolver:  Solving for Ux, Initial residual = 0.0119052, Final residual = 5.66909e-06, No Iterations 2
smoothSolver:  Solving for Uy, Initial residual = 0.017319, Final residual = 6.1677e-06, No Iterations 2
smoothSolver:  Solving for Uz, Initial residual = 0.0294654, Final residual = 1.0963e-06, No Iterations 3
GAMG:  Solving for p, Initial residual = 0.0577749, Final residual = 0.000453784, No Iterations 3
time step continuity errors : sum local = 5.55297e-07, global = 5.24247e-09, cumulative = 9.88821e-08
GAMG:  Solving for p, Initial residual = 0.0113273, Final residual = 5.43321e-08, No Iterations 12
time step continuity errors : sum local = 6.6787e-11, global = 3.23643e-11, cumulative = 9.89145e-08
ExecutionTime = 0.38 s  ClockTime = 0 s

Courant Number mean: 0.314038 max: 0.747278
deltaT = 0.0002
Time = 0.004

smoothSolver:  Solving for Ux, Initial residual = 0.0116697, Final residual = 5.80906e-06, No Iterations 2
smoothSolver:  Solving for Uy, Initial residual = 0.0171008, Final residual = 6.34026e-06, No Iterations 2
smoothSolver:  Solving for Uz, Initial residual = 0.028636, Final residual = 1.05297e-06, No Iterations 3
GAMG:  Solving for p, Initial residual = 0.0563425, Final residual = 0.000446854, No Iterations 3
time step continuity errors : sum local = 5.5146e-07, global = 5.42896e-09, cumulative = 1.04343e-07
GAMG:  Solving for p, Initial residual = 0.0112061, Final residual = 5.38137e-08, No Iterations 12
time step continuity errors : sum local = 6.67454e-11, global = 3.2481e-11, cumulative = 1.04376e-07
ExecutionTime = 0.39 s  ClockTime = 0 s

Courant Number mean: 0.314432 max: 0.747353
deltaT = 0.0002
Time = 0.0042

smoothSolver:  Solving for Ux, Initial residual = 0.0114422, Final residual = 5.95842e-06, No Iterations 2
smoothSolver:  Solving for Uy, Initial residual = 0.0167856, Final residual = 6.4995e-06, No Iterations 2
smoothSolver:  Solving for Uz, Initial residual = 0.0277515, Final residual = 9.79434e-07, No Iterations 3
GAMG:  Solving for p, Initial residual = 0.054652, Final residual = 0.000443761, No Iterations 3
time step continuity errors : sum local = 5.51625e-07, global = 4.74228e-09, cumulative = 1.09118e-07
GAMG:  Solving for p, Initial residual = 0.0111757, Final residual = 5.46183e-08, No Iterations 12
time step continuity errors : sum local = 6.80812e-11, global = 3.30562e-11, cumulative = 1.09151e-07
ExecutionTime = 0.4 s  ClockTime = 0 s

Courant Number mean: 0.314802 max: 0.746395
deltaT = 0.0002
Time = 0.0044

smoothSolver:  Solving for Ux, Initial residual = 0.01121, Final residual = 6.12011e-06, No Iterations 2
smoothSolver:  Solving for Uy, Initial residual = 0.0164871, Final residual = 6.65015e-06, No Iterations 2
smoothSolver:  Solving for Uz, Initial residual = 0.026889, Final residual = 8.7213e-07, No Iterations 3
GAMG:  Solving for p, Initial residual = 0.0535627, Final residual = 0.000440275, No Iterations 3
time step continuity errors : sum local = 5.49398e-07, global = 5.94321e-09, cumulative = 1.15094e-07
GAMG:  Solving for p, Initial residual = 0.01111, Final residual = 5.42257e-08, No Iterations 12
time step continuity errors : sum local = 6.77774e-11, global = 3.32015e-11, cumulative = 1.15128e-07
ExecutionTime = 0.4 s  ClockTime = 0 s

Courant Number mean: 0.315192 max: 0.744408
deltaT = 0.0002
Time = 0.0046

smoothSolver:  Solving for Ux, Initial residual = 0.0110122, Final residual = 6.29316e-06, No Iterations 2
smoothSolver:  Solving for Uy, Initial residual = 0.0162538, Final residual = 6.79924e-06, No Iterations 2
smoothSolver:  Solving for Uz, Initial residual = 0.0263745, Final residual = 7.32676e-07, No Iterations 3
GAMG:  Solving for p, Initial residual = 0.0527451, Final residual = 0.000435297, No Iterations 3
time step continuity errors : sum local = 5.45965e-07, global = 6.23317e-09, cumulative = 1.21361e-07
GAMG:  Solving for p, Initial residual = 0.0109695, Final residual = 5.36327e-08, No Iterations 12
time step continuity errors : sum local = 6.74842e-11, global = 3.32628e-11, cumulative = 1.21394e-07
ExecutionTime = 0.41 s  ClockTime = 0 s

Courant Number mean: 0.315589 max: 0.741418
deltaT = 0.0002
Time = 0.0048

smoothSolver:  Solving for Ux, Initial residual = 0.0108163, Final residual = 6.47202e-06, No Iterations 2
smoothSolver:  Solving for Uy, Initial residual = 0.0160599, Final residual = 6.96408e-06, No Iterations 2
smoothSolver:  Solving for Uz, Initial residual = 0.025642, Final residual = 5.99807e-07, No Iterations 3
GAMG:  Solving for p, Initial residual = 0.0524801, Final residual = 0.000428616, No Iterations 3
time step continuity errors : sum local = 5.40062e-07, global = 7.62188e-09, cumulative = 1.29016e-07
GAMG:  Solving for p, Initial residual = 0.0107298, Final residual = 5.27793e-08, No Iterations 12
time step continuity errors : sum local = 6.66734e-11, global = 3.32394e-11, cumulative = 1.29049e-07
ExecutionTime = 0.42 s  ClockTime = 0 s

Courant Number mean: 0.315956 max: 0.73749
deltaT = 0.0002
Time = 0.005

smoothSolver:  Solving for Ux, Initial residual = 0.0106191, Final residual = 6.65721e-06, No Iterations 2
smoothSolver:  Solving for Uy, Initial residual = 0.0158525, Final residual = 7.13466e-06, No Iterations 2
smoothSolver:  Solving for Uz, Initial residual = 0.0251645, Final residual = 5.68191e-07, No Iterations 3
GAMG:  Solving for p, Initial residual = 0.0529974, Final residual = 0.000426495, No Iterations 3
time step continuity errors : sum local = 5.39136e-07, global = 8.05838e-09, cumulative = 1.37108e-07
GAMG:  Solving for p, Initial residual = 0.0105277, Final residual = 5.28259e-08, No Iterations 12
time step continuity errors : sum local = 6.68334e-11, global = 3.35213e-11, cumulative = 1.37141e-07
ExecutionTime = 0.43 s  ClockTime = 0 s

Courant Number mean: 0.316344 max: 0.738903
deltaT = 0.0002
Time = 0.0052

smoothSolver:  Solving for Ux, Initial residual = 0.0104097, Final residual = 6.84788e-06, No Iterations 2
smoothSolver:  Solving for Uy, Initial residual = 0.0156055, Final residual = 7.28933e-06, No Iterations 2
smoothSolver:  Solving for Uz, Initial residual = 0.0247515, Final residual = 6.34128e-07, No Iterations 3
GAMG:  Solving for p, Initial residual = 0.0533652, Final residual = 0.000426878, No Iterations 3
time step continuity errors : sum local = 5.39942e-07, global = 8.67247e-09, cumulative = 1.45814e-07
GAMG:  Solving for p, Initial residual = 0.0104821, Final residual = 5.29966e-08, No Iterations 12
time step continuity errors : sum local = 6.70752e-11, global = 3.38613e-11, cumulative = 1.45847e-07
ExecutionTime = 0.44 s  ClockTime = 0 s

Courant Number mean: 0.316746 max: 0.739916
deltaT = 0.0002
Time = 0.0054

smoothSolver:  Solving for Ux, Initial residual = 0.0102074, Final residual = 7.03722e-06, No Iterations 2
smoothSolver:  Solving for Uy, Initial residual = 0.0153012, Final residual = 7.42741e-06, No Iterations 2
smoothSolver:  Solving for Uz, Initial residual = 0.0241247, Final residual = 7.82695e-07, No Iterations 3
GAMG:  Solving for p, Initial residual = 0.0535009, Final residual = 0.000429144, No Iterations 3
time step continuity errors : sum local = 5.44197e-07, global = 9.39796e-09, cumulative = 1.55245e-07
GAMG:  Solving for p, Initial residual = 0.0104785, Final residual = 5.30716e-08, No Iterations 12
time step continuity errors : sum local = 6.74178e-11, global = 3.42695e-11, cumulative = 1.5528e-07
ExecutionTime = 0.45 s  ClockTime = 0 s

Courant Number mean: 0.317148 max: 0.73982
deltaT = 0.0002
Time = 0.0056

smoothSolver:  Solving for Ux, Initial residual = 0.0100092, Final residual = 7.22166e-06, No Iterations 2
smoothSolver:  Solving for Uy, Initial residual = 0.0150479, Final residual = 7.53849e-06, No Iterations 2
smoothSolver:  Solving for Uz, Initial residual = 0.0237311, Final residual = 9.57691e-07, No Iterations 3
GAMG:  Solving for p, Initial residual = 0.0531525, Final residual = 0.000435863, No Iterations 3
time step continuity errors : sum local = 5.54122e-07, global = 1.08021e-08, cumulative = 1.66082e-07
GAMG:  Solving for p, Initial residual = 0.0104843, Final residual = 5.28017e-08, No Iterations 12
time step continuity errors : sum local = 6.72321e-11, global = 3.44841e-11, cumulative = 1.66116e-07
ExecutionTime = 0.46 s  ClockTime = 0 s

Courant Number mean: 0.317526 max: 0.738615
deltaT = 0.0002
Time = 0.0058

smoothSolver:  Solving for Ux, Initial residual = 0.00981121, Final residual = 7.39526e-06, No Iterations 2
smoothSolver:  Solving for Uy, Initial residual = 0.014802, Final residual = 7.6353e-06, No Iterations 2
smoothSolver:  Solving for Uz, Initial residual = 0.0232836, Final residual = 1.18508e-06, No Iterations 3
GAMG:  Solving for p, Initial residual = 0.0523296, Final residual = 0.000445756, No Iterations 3
time step continuity errors : sum local = 5.68326e-07, global = 1.15273e-08, cumulative = 1.77644e-07
GAMG:  Solving for p, Initial residual = 0.0104168, Final residual = 5.30974e-08, No Iterations 12
time step continuity errors : sum local = 6.78993e-11, global = 3.5043e-11, cumulative = 1.77679e-07
ExecutionTime = 0.47 s  ClockTime = 0 s

Courant Number mean: 0.317892 max: 0.736329
deltaT = 0.0002
Time = 0.006

smoothSolver:  Solving for Ux, Initial residual = 0.0096273, Final residual = 7.5569e-06, No Iterations 2
smoothSolver:  Solving for Uy, Initial residual = 0.014609, Final residual = 7.73509e-06, No Iterations 2
smoothSolver:  Solving for Uz, Initial residual = 0.0227939, Final residual = 1.42087e-06, No Iterations 3
GAMG:  Solving for p, Initial residual = 0.0513126, Final residual = 0.000455633, No Iterations 3
time step continuity errors : sum local = 5.84177e-07, global = 1.2314e-08, cumulative = 1.89993e-07
GAMG:  Solving for p, Initial residual = 0.0103141, Final residual = 5.3225e-08, No Iterations 12
time step continuity errors : sum local = 6.84594e-11, global = 3.55666e-11, cumulative = 1.90028e-07
ExecutionTime = 0.48 s  ClockTime = 0 s

Courant Number mean: 0.318259 max: 0.733019
deltaT = 0.0002
Time = 0.0062

smoothSolver:  Solving for Ux, Initial residual = 0.00943394, Final residual = 7.70435e-06, No Iterations 2
smoothSolver:  Solving for Uy, Initial residual = 0.0144556, Final residual = 7.83342e-06, No Iterations 2
smoothSolver:  Solving for Uz, Initial residual = 0.0222984, Final residual = 1.63928e-06, No Iterations 3
GAMG:  Solving for p, Initial residual = 0.0506358, Final residual = 0.000466893, No Iterations 3
time step continuity errors : sum local = 6.02686e-07, global = 1.31673e-08, cumulative = 2.03195e-07
GAMG:  Solving for p, Initial residual = 0.0101024, Final residual = 5.31264e-08, No Iterations 12
time step continuity errors : sum local = 6.88283e-11, global = 3.60297e-11, cumulative = 2.03231e-07
ExecutionTime = 0.49 s  ClockTime = 0 s

Courant Number mean: 0.318618 max: 0.732826
deltaT = 0.0002
Time = 0.0064

smoothSolver:  Solving for Ux, Initial residual = 0.00924978, Final residual = 7.83733e-06, No Iterations 2
smoothSolver:  Solving for Uy, Initial residual = 0.014255, Final residual = 7.93808e-06, No Iterations 2
smoothSolver:  Solving for Uz, Initial residual = 0.0217881, Final residual = 1.82844e-06, No Iterations 3
GAMG:  Solving for p, Initial residual = 0.0502266, Final residual = 0.000478858, No Iterations 3
time step continuity errors : sum local = 6.21778e-07, global = 1.39873e-08, cumulative = 2.17219e-07
GAMG:  Solving for p, Initial residual = 0.0098189, Final residual = 5.27425e-08, No Iterations 12
time step continuity errors : sum local = 6.90034e-11, global = 3.63785e-11, cumulative = 2.17255e-07
ExecutionTime = 0.5 s  ClockTime = 0 s

Courant Number mean: 0.318958 max: 0.733917
deltaT = 0.0002
Time = 0.0066

smoothSolver:  Solving for Ux, Initial residual = 0.00906673, Final residual = 7.9555e-06, No Iterations 2
smoothSolver:  Solving for Uy, Initial residual = 0.0140453, Final residual = 8.04e-06, No Iterations 2
smoothSolver:  Solving for Uz, Initial residual = 0.0213845, Final residual = 1.99295e-06, No Iterations 3
GAMG:  Solving for p, Initial residual = 0.0492517, Final residual = 0.000484645, No Iterations 3
time step continuity errors : sum local = 6.38074e-07, global = 1.46918e-08, cumulative = 2.31947e-07
GAMG:  Solving for p, Initial residual = 0.00972739, Final residual = 5.28385e-08, No Iterations 12
time step continuity errors : sum local = 6.99242e-11, global = 3.70746e-11, cumulative = 2.31984e-07
ExecutionTime = 0.51 s  ClockTime = 0 s

Courant Number mean: 0.319302 max: 0.733979
deltaT = 0.0002
Time = 0.0068

smoothSolver:  Solving for Ux, Initial residual = 0.00890229, Final residual = 8.05717e-06, No Iterations 2
smoothSolver:  Solving for Uy, Initial residual = 0.013848, Final residual = 8.12914e-06, No Iterations 2
smoothSolver:  Solving for Uz, Initial residual = 0.020961, Final residual = 2.10898e-06, No Iterations 3
GAMG:  Solving for p, Initial residual = 0.0476341, Final residual = 0.000175475, No Iterations 4
time step continuity errors : sum local = 2.3374e-07, global = 1.03742e-08, cumulative = 2.42358e-07
GAMG:  Solving for p, Initial residual = 0.00956016, Final residual = 9.93401e-08, No Iterations 11
time step continuity errors : sum local = 1.33238e-10, global = 8.59763e-11, cumulative = 2.42444e-07
ExecutionTime = 0.52 s  ClockTime = 0 s

Courant Number mean: 0.319669 max: 0.733034
deltaT = 0.0002
Time = 0.007

smoothSolver:  Solving for Ux, Initial residual = 0.00873241, Final residual = 8.14209e-06, No Iterations 2
smoothSolver:  Solving for Uy, Initial residual = 0.0136735, Final residual = 8.19325e-06, No Iterations 2
smoothSolver:  Solving for Uz, Initial residual = 0.0205868, Final residual = 2.17026e-06, No Iterations 3
GAMG:  Solving for p, Initial residual = 0.045976, Final residual = 0.000189619, No Iterations 4
time step continuity errors : sum local = 2.55462e-07, global = 1.5793e-09, cumulative = 2.44024e-07
GAMG:  Solving for p, Initial residual = 0.00941647, Final residual = 4.5308e-08, No Iterations 12
time step continuity errors : sum local = 6.16322e-11, global = 3.93661e-11, cumulative = 2.44063e-07
ExecutionTime = 0.53 s  ClockTime = 0 s

Courant Number mean: 0.320033 max: 0.731122
deltaT = 0.0002
Time = 0.0072

smoothSolver:  Solving for Ux, Initial residual = 0.00858357, Final residual = 8.20961e-06, No Iterations 2
smoothSolver:  Solving for Uy, Initial residual = 0.0134795, Final residual = 8.23976e-06, No Iterations 2
smoothSolver:  Solving for Uz, Initial residual = 0.0201687, Final residual = 2.18337e-06, No Iterations 3
GAMG:  Solving for p, Initial residual = 0.0440469, Final residual = 0.000190368, No Iterations 4
time step continuity errors : sum local = 2.60477e-07, global = 2.32418e-09, cumulative = 2.46387e-07
GAMG:  Solving for p, Initial residual = 0.00918661, Final residual = 4.54075e-08, No Iterations 12
time step continuity errors : sum local = 6.27747e-11, global = 4.02346e-11, cumulative = 2.46427e-07
ExecutionTime = 0.54 s  ClockTime = 0 s

Courant Number mean: 0.320366 max: 0.728318
deltaT = 0.0002
Time = 0.0074

smoothSolver:  Solving for Ux, Initial residual = 0.00842801, Final residual = 8.26037e-06, No Iterations 2
smoothSolver:  Solving for Uy, Initial residual = 0.0132672, Final residual = 8.28299e-06, No Iterations 2
smoothSolver:  Solving for Uz, Initial residual = 0.0198062, Final residual = 2.13995e-06, No Iterations 3
GAMG:  Solving for p, Initial residual = 0.0430282, Final residual = 0.000193251, No Iterations 4
time step continuity errors : sum local = 2.68769e-07, global = 2.30312e-09, cumulative = 2.4873e-07
GAMG:  Solving for p, Initial residual = 0.00890128, Final residual = 9.94842e-08, No Iterations 11
time step continuity errors : sum local = 1.39887e-10, global = 8.34274e-11, cumulative = 2.48814e-07
ExecutionTime = 0.55 s  ClockTime = 0 s

Courant Number mean: 0.320668 max: 0.72685
deltaT = 0.0002
Time = 0.0076

smoothSolver:  Solving for Ux, Initial residual = 0.00826293, Final residual = 8.296e-06, No Iterations 2
smoothSolver:  Solving for Uy, Initial residual = 0.0130296, Final residual = 8.31463e-06, No Iterations 2
smoothSolver:  Solving for Uz, Initial residual = 0.0195212, Final residual = 2.048e-06, No Iterations 3
GAMG:  Solving for p, Initial residual = 0.0423803, Final residual = 0.000196257, No Iterations 4
time step continuity errors : sum local = 2.77076e-07, global = 2.38066e-09, cumulative = 2.51195e-07
GAMG:  Solving for p, Initial residual = 0.00860242, Final residual = 9.85103e-08, No Iterations 11
time step continuity errors : sum local = 1.40321e-10, global = 8.44855e-11, cumulative = 2.51279e-07
ExecutionTime = 0.56 s  ClockTime = 0 s

Courant Number mean: 0.320968 max: 0.727873
deltaT = 0.0002
Time = 0.0078

smoothSolver:  Solving for Ux, Initial residual = 0.0081, Final residual = 8.31935e-06, No Iterations 2
smoothSolver:  Solving for Uy, Initial residual = 0.0128588, Final residual = 8.32975e-06, No Iterations 2
smoothSolver:  Solving for Uz, Initial residual = 0.0191569, Final residual = 1.9126e-06, No Iterations 3
GAMG:  Solving for p, Initial residual = 0.041452, Final residual = 0.00019944, No Iterations 4
time step continuity errors : sum local = 2.85028e-07, global = 2.4169e-09, cumulative = 2.53696e-07
GAMG:  Solving for p, Initial residual = 0.00844458, Final residual = 9.79115e-08, No Iterations 11
time step continuity errors : sum local = 1.40843e-10, global = 8.55151e-11, cumulative = 2.53781e-07
ExecutionTime = 0.56 s  ClockTime = 0 s

Courant Number mean: 0.321287 max: 0.728002
deltaT = 0.0002
Time = 0.008

smoothSolver:  Solving for Ux, Initial residual = 0.00795112, Final residual = 8.32967e-06, No Iterations 2
smoothSolver:  Solving for Uy, Initial residual = 0.0127023, Final residual = 8.32407e-06, No Iterations 2
smoothSolver:  Solving for Uz, Initial residual = 0.0187921, Final residual = 1.74698e-06, No Iterations 3
GAMG:  Solving for p, Initial residual = 0.0400135, Final residual = 0.000202528, No Iterations 4
time step continuity errors : sum local = 2.92475e-07, global = 2.48187e-09, cumulative = 2.56263e-07
GAMG:  Solving for p, Initial residual = 0.00823063, Final residual = 9.74282e-08, No Iterations 11
time step continuity errors : sum local = 1.41707e-10, global = 8.66404e-11, cumulative = 2.5635e-07
ExecutionTime = 0.57 s  ClockTime = 0 s

Courant Number mean: 0.321605 max: 0.727304
deltaT = 0.0002
Time = 0.0082

smoothSolver:  Solving for Ux, Initial residual = 0.00781638, Final residual = 8.32645e-06, No Iterations 2
smoothSolver:  Solving for Uy, Initial residual = 0.0125571, Final residual = 8.2673e-06, No Iterations 2
smoothSolver:  Solving for Uz, Initial residual = 0.018583, Final residual = 1.56455e-06, No Iterations 3
GAMG:  Solving for p, Initial residual = 0.038622, Final residual = 0.000205853, No Iterations 4
time step continuity errors : sum local = 3.00306e-07, global = 2.55883e-09, cumulative = 2.58909e-07
GAMG:  Solving for p, Initial residual = 0.00802535, Final residual = 9.69094e-08, No Iterations 11
time step continuity errors : sum local = 1.42345e-10, global = 8.76845e-11, cumulative = 2.58997e-07
ExecutionTime = 0.58 s  ClockTime = 0 s

Courant Number mean: 0.321923 max: 0.72585
deltaT = 0.0002
Time = 0.0084

smoothSolver:  Solving for Ux, Initial residual = 0.00769543, Final residual = 8.30814e-06, No Iterations 2
smoothSolver:  Solving for Uy, Initial residual = 0.0123748, Final residual = 8.1493e-06, No Iterations 2
smoothSolver:  Solving for Uz, Initial residual = 0.0183009, Final residual = 1.3762e-06, No Iterations 3
GAMG:  Solving for p, Initial residual = 0.0371909, Final residual = 0.000209019, No Iterations 4
time step continuity errors : sum local = 3.08095e-07, global = 2.63831e-09, cumulative = 2.61635e-07
GAMG:  Solving for p, Initial residual = 0.00784552, Final residual = 9.60531e-08, No Iterations 11
time step continuity errors : sum local = 1.42482e-10, global = 8.85259e-11, cumulative = 2.61723e-07
ExecutionTime = 0.59 s  ClockTime = 0 s

Courant Number mean: 0.32223 max: 0.72372
deltaT = 0.0002
Time = 0.0086

smoothSolver:  Solving for Ux, Initial residual = 0.00757569, Final residual = 8.27306e-06, No Iterations 2
smoothSolver:  Solving for Uy, Initial residual = 0.0121766, Final residual = 7.96691e-06, No Iterations 2
smoothSolver:  Solving for Uz, Initial residual = 0.0179623, Final residual = 1.19488e-06, No Iterations 3
GAMG:  Solving for p, Initial residual = 0.0358939, Final residual = 0.000211777, No Iterations 4
time step continuity errors : sum local = 3.152e-07, global = 2.71229e-09, cumulative = 2.64436e-07
GAMG:  Solving for p, Initial residual = 0.00762328, Final residual = 9.48182e-08, No Iterations 11
time step continuity errors : sum local = 1.42043e-10, global = 8.90258e-11, cumulative = 2.64525e-07
ExecutionTime = 0.6 s  ClockTime = 0 s

Courant Number mean: 0.322542 max: 0.721
deltaT = 0.0002
Time = 0.0088

smoothSolver:  Solving for Ux, Initial residual = 0.00744955, Final residual = 8.25198e-06, No Iterations 2
smoothSolver:  Solving for Uy, Initial residual = 0.0119767, Final residual = 7.72424e-06, No Iterations 2
smoothSolver:  Solving for Uz, Initial residual = 0.0177325, Final residual = 1.03092e-06, No Iterations 3
GAMG:  Solving for p, Initial residual = 0.0350561, Final residual = 0.000214062, No Iterations 4
time step continuity errors : sum local = 3.21371e-07, global = 2.79198e-09, cumulative = 2.67317e-07
GAMG:  Solving for p, Initial residual = 0.00737787, Final residual = 9.39438e-08, No Iterations 11
time step continuity errors : sum local = 1.41742e-10, global = 8.93246e-11, cumulative = 2.67406e-07
ExecutionTime = 0.6 s  ClockTime = 0 s

Courant Number mean: 0.322846 max: 0.721672
deltaT = 0.0002
Time = 0.009

smoothSolver:  Solving for Ux, Initial residual = 0.00731728, Final residual = 8.22185e-06, No Iterations 2
smoothSolver:  Solving for Uy, Initial residual = 0.0118038, Final residual = 7.41289e-06, No Iterations 2
smoothSolver:  Solving for Uz, Initial residual = 0.0174502, Final residual = 8.89435e-07, No Iterations 3
GAMG:  Solving for p, Initial residual = 0.0343037, Final residual = 0.000215884, No Iterations 4
time step continuity errors : sum local = 3.26535e-07, global = 2.84635e-09, cumulative = 2.70252e-07
GAMG:  Solving for p, Initial residual = 0.00720527, Final residual = 9.36976e-08, No Iterations 11
time step continuity errors : sum local = 1.4227e-10, global = 8.94906e-11, cumulative = 2.70342e-07
ExecutionTime = 0.62 s  ClockTime = 0 s

Courant Number mean: 0.323148 max: 0.722094
deltaT = 0.0002
Time = 0.0092

smoothSolver:  Solving for Ux, Initial residual = 0.00718772, Final residual = 8.21212e-06, No Iterations 2
smoothSolver:  Solving for Uy, Initial residual = 0.0116224, Final residual = 7.05687e-06, No Iterations 2
smoothSolver:  Solving for Uz, Initial residual = 0.0170947, Final residual = 7.74606e-07, No Iterations 3
GAMG:  Solving for p, Initial residual = 0.0333401, Final residual = 0.000207339, No Iterations 4
time step continuity errors : sum local = 3.15887e-07, global = 1.31476e-08, cumulative = 2.83489e-07
GAMG:  Solving for p, Initial residual = 0.00706277, Final residual = 5.30836e-08, No Iterations 12
time step continuity errors : sum local = 8.11844e-11, global = 5.02494e-11, cumulative = 2.8354e-07
ExecutionTime = 0.63 s  ClockTime = 0 s

Courant Number mean: 0.323431 max: 0.721865
deltaT = 0.0002
Time = 0.0094

smoothSolver:  Solving for Ux, Initial residual = 0.00707877, Final residual = 8.19074e-06, No Iterations 2
smoothSolver:  Solving for Uy, Initial residual = 0.0114547, Final residual = 6.63237e-06, No Iterations 2
smoothSolver:  Solving for Uz, Initial residual = 0.0168478, Final residual = 6.85546e-07, No Iterations 3
GAMG:  Solving for p, Initial residual = 0.0322267, Final residual = 0.000208483, No Iterations 4
time step continuity errors : sum local = 3.20146e-07, global = 1.15769e-08, cumulative = 2.95117e-07
GAMG:  Solving for p, Initial residual = 0.00693482, Final residual = 5.23075e-08, No Iterations 12
time step continuity errors : sum local = 8.0606e-11, global = 4.97251e-11, cumulative = 2.95166e-07
ExecutionTime = 0.64 s  ClockTime = 0 s

Courant Number mean: 0.323701 max: 0.721048
deltaT = 0.0002
Time = 0.0096

smoothSolver:  Solving for Ux, Initial residual = 0.00696648, Final residual = 8.15591e-06, No Iterations 2
smoothSolver:  Solving for Uy, Initial residual = 0.0112794, Final residual = 6.14525e-06, No Iterations 2
smoothSolver:  Solving for Uz, Initial residual = 0.0165947, Final residual = 9.21428e-06, No Iterations 2
GAMG:  Solving for p, Initial residual = 0.0310999, Final residual = 0.00020744, No Iterations 4
time step continuity errors : sum local = 3.21052e-07, global = 1.12725e-08, cumulative = 3.06439e-07
GAMG:  Solving for p, Initial residual = 0.00675432, Final residual = 5.16835e-08, No Iterations 12
time step continuity errors : sum local = 8.02561e-11, global = 4.93793e-11, cumulative = 3.06488e-07
ExecutionTime = 0.64 s  ClockTime = 0 s

Courant Number mean: 0.323979 max: 0.719711
deltaT = 0.0002
Time = 0.0098

smoothSolver:  Solving for Ux, Initial residual = 0.00686403, Final residual = 8.10347e-06, No Iterations 2
smoothSolver:  Solving for Uy, Initial residual = 0.0110977, Final residual = 5.71137e-06, No Iterations 2
smoothSolver:  Solving for Uz, Initial residual = 0.0163001, Final residual = 8.63116e-06, No Iterations 2
GAMG:  Solving for p, Initial residual = 0.0300365, Final residual = 0.000205817, No Iterations 4
time step continuity errors : sum local = 3.21092e-07, global = 1.07621e-08, cumulative = 3.1725e-07
GAMG:  Solving for p, Initial residual = 0.00653821, Final residual = 5.0806e-08, No Iterations 12
time step continuity errors : sum local = 7.95575e-11, global = 4.88482e-11, cumulative = 3.17299e-07
ExecutionTime = 0.65 s  ClockTime = 0 s

Courant Number mean: 0.324254 max: 0.717925
deltaT = 0.0002
Time = 0.01

smoothSolver:  Solving for Ux, Initial residual = 0.00676032, Final residual = 8.03467e-06, No Iterations 2
smoothSolver:  Solving for Uy, Initial residual = 0.0109374, Final residual = 5.47586e-06, No Iterations 2
smoothSolver:  Solving for Uz, Initial residual = 0.0160221, Final residual = 8.25187e-06, No Iterations 2
GAMG:  Solving for p, Initial residual = 0.0291558, Final residual = 0.000203748, No Iterations 4
time step continuity errors : sum local = 3.20275e-07, global = 1.02268e-08, cumulative = 3.27526e-07
GAMG:  Solving for p, Initial residual = 0.00630928, Final residual = 4.98991e-08, No Iterations 12
time step continuity errors : sum local = 7.86591e-11, global = 4.82136e-11, cumulative = 3.27574e-07
ExecutionTime = 0.66 s  ClockTime = 0 s

Courant Number mean: 0.324518 max: 0.71576
deltaT = 0.0002
Time = 0.0102

smoothSolver:  Solving for Ux, Initial residual = 0.00665578, Final residual = 7.95858e-06, No Iterations 2
smoothSolver:  Solving for Uy, Initial residual = 0.0107946, Final residual = 5.33139e-06, No Iterations 2
smoothSolver:  Solving for Uz, Initial residual = 0.0157749, Final residual = 8.02227e-06, No Iterations 2
GAMG:  Solving for p, Initial residual = 0.0284997, Final residual = 0.000201146, No Iterations 4
time step continuity errors : sum local = 3.18211e-07, global = 9.63803e-09, cumulative = 3.37212e-07
GAMG:  Solving for p, Initial residual = 0.00613511, Final residual = 9.97932e-08, No Iterations 11
time step continuity errors : sum local = 1.58247e-10, global = 9.74104e-11, cumulative = 3.3731e-07
ExecutionTime = 0.67 s  ClockTime = 0 s

Courant Number mean: 0.324791 max: 0.716253
deltaT = 0.0002
Time = 0.0104

smoothSolver:  Solving for Ux, Initial residual = 0.00655085, Final residual = 7.86672e-06, No Iterations 2
smoothSolver:  Solving for Uy, Initial residual = 0.01065, Final residual = 5.21943e-06, No Iterations 2
smoothSolver:  Solving for Uz, Initial residual = 0.0155364, Final residual = 7.93247e-06, No Iterations 2
GAMG:  Solving for p, Initial residual = 0.0276422, Final residual = 0.000198024, No Iterations 4
time step continuity errors : sum local = 3.15309e-07, global = 9.07094e-09, cumulative = 3.4638e-07
GAMG:  Solving for p, Initial residual = 0.00600314, Final residual = 9.76326e-08, No Iterations 11
time step continuity errors : sum local = 1.55801e-10, global = 9.57743e-11, cumulative = 3.46476e-07
ExecutionTime = 0.68 s  ClockTime = 0 s

Courant Number mean: 0.325053 max: 0.716571
deltaT = 0.0002
Time = 0.0106

smoothSolver:  Solving for Ux, Initial residual = 0.00645323, Final residual = 7.75877e-06, No Iterations 2
smoothSolver:  Solving for Uy, Initial residual = 0.0105027, Final residual = 5.25353e-06, No Iterations 2
smoothSolver:  Solving for Uz, Initial residual = 0.0152821, Final residual = 7.93995e-06, No Iterations 2
GAMG:  Solving for p, Initial residual = 0.0267169, Final residual = 0.000194536, No Iterations 4
time step continuity errors : sum local = 3.11651e-07, global = 8.45835e-09, cumulative = 3.54935e-07
GAMG:  Solving for p, Initial residual = 0.00589279, Final residual = 9.55275e-08, No Iterations 11
time step continuity errors : sum local = 1.53451e-10, global = 9.4088e-11, cumulative = 3.55029e-07
ExecutionTime = 0.69 s  ClockTime = 0 s

Courant Number mean: 0.325298 max: 0.716445
deltaT = 0.0002
Time = 0.0108

smoothSolver:  Solving for Ux, Initial residual = 0.00635855, Final residual = 7.63601e-06, No Iterations 2
smoothSolver:  Solving for Uy, Initial residual = 0.0103369, Final residual = 5.33654e-06, No Iterations 2
smoothSolver:  Solving for Uz, Initial residual = 0.0150075, Final residual = 8.0121e-06, No Iterations 2
GAMG:  Solving for p, Initial residual = 0.0258357, Final residual = 0.000191045, No Iterations 4
time step continuity errors : sum local = 3.07899e-07, global = 7.75196e-09, cumulative = 3.62781e-07
GAMG:  Solving for p, Initial residual = 0.00575511, Final residual = 9.31324e-08, No Iterations 11
time step continuity errors : sum local = 1.50391e-10, global = 9.19261e-11, cumulative = 3.62873e-07
ExecutionTime = 0.69 s  ClockTime = 0 s

Courant Number mean: 0.325549 max: 0.715924
deltaT = 0.0002
Time = 0.011

smoothSolver:  Solving for Ux, Initial residual = 0.0062663, Final residual = 7.50939e-06, No Iterations 2
smoothSolver:  Solving for Uy, Initial residual = 0.0101716, Final residual = 5.40749e-06, No Iterations 2
smoothSolver:  Solving for Uz, Initial residual = 0.01482, Final residual = 8.07657e-06, No Iterations 2
GAMG:  Solving for p, Initial residual = 0.0251199, Final residual = 0.000186958, No Iterations 4
time step continuity errors : sum local = 3.03157e-07, global = 7.03034e-09, cumulative = 3.69903e-07
GAMG:  Solving for p, Initial residual = 0.00559201, Final residual = 9.05232e-08, No Iterations 11
time step continuity errors : sum local = 1.47107e-10, global = 8.96799e-11, cumulative = 3.69993e-07
ExecutionTime = 0.7 s  ClockTime = 0 s

Courant Number mean: 0.325805 max: 0.71506
deltaT = 0.0002
Time = 0.0112

smoothSolver:  Solving for Ux, Initial residual = 0.00617653, Final residual = 7.38494e-06, No Iterations 2
smoothSolver:  Solving for Uy, Initial residual = 0.0100403, Final residual = 5.558e-06, No Iterations 2
smoothSolver:  Solving for Uz, Initial residual = 0.0146023, Final residual = 8.12155e-06, No Iterations 2
GAMG:  Solving for p, Initial residual = 0.0243338, Final residual = 0.000182688, No Iterations 4
time step continuity errors : sum local = 2.97941e-07, global = 6.17112e-09, cumulative = 3.76164e-07
GAMG:  Solving for p, Initial residual = 0.00541839, Final residual = 8.80758e-08, No Iterations 11
time step continuity errors : sum local = 1.43963e-10, global = 8.74744e-11, cumulative = 3.76251e-07
ExecutionTime = 0.71 s  ClockTime = 0 s

Courant Number mean: 0.326049 max: 0.713902
deltaT = 0.0002
Time = 0.0114

smoothSolver:  Solving for Ux, Initial residual = 0.00608952, Final residual = 7.2521e-06, No Iterations 2
smoothSolver:  Solving for Uy, Initial residual = 0.00992292, Final residual = 5.70266e-06, No Iterations 2
smoothSolver:  Solving for Uz, Initial residual = 0.0143348, Final residual = 8.12622e-06, No Iterations 2
GAMG:  Solving for p, Initial residual = 0.0237399, Final residual = 0.00017817, No Iterations 4
time step continuity errors : sum local = 2.92269e-07, global = 5.58958e-09, cumulative = 3.81841e-07
GAMG:  Solving for p, Initial residual = 0.00525437, Final residual = 8.53887e-08, No Iterations 11
time step continuity errors : sum local = 1.40357e-10, global = 8.50939e-11, cumulative = 3.81926e-07
ExecutionTime = 0.72 s  ClockTime = 0 s

Courant Number mean: 0.326297 max: 0.7125
deltaT = 0.0002
Time = 0.0116

smoothSolver:  Solving for Ux, Initial residual = 0.00600787, Final residual = 7.11121e-06, No Iterations 2
smoothSolver:  Solving for Uy, Initial residual = 0.00980276, Final residual = 5.8306e-06, No Iterations 2
smoothSolver:  Solving for Uz, Initial residual = 0.0141402, Final residual = 8.10797e-06, No Iterations 2
GAMG:  Solving for p, Initial residual = 0.0230689, Final residual = 0.000173769, No Iterations 4
time step continuity errors : sum local = 2.86563e-07, global = 4.52988e-09, cumulative = 3.86456e-07
GAMG:  Solving for p, Initial residual = 0.00511227, Final residual = 8.28109e-08, No Iterations 11
time step continuity errors : sum local = 1.36804e-10, global = 8.24044e-11, cumulative = 3.86538e-07
ExecutionTime = 0.73 s  ClockTime = 0 s

Courant Number mean: 0.326543 max: 0.711276
deltaT = 0.0002
Time = 0.0118

smoothSolver:  Solving for Ux, Initial residual = 0.00592595, Final residual = 6.96424e-06, No Iterations 2
smoothSolver:  Solving for Uy, Initial residual = 0.00968137, Final residual = 5.96159e-06, No Iterations 2
smoothSolver:  Solving for Uz, Initial residual = 0.0139492, Final residual = 8.06254e-06, No Iterations 2
GAMG:  Solving for p, Initial residual = 0.0224508, Final residual = 0.000168869, No Iterations 4
time step continuity errors : sum local = 2.79935e-07, global = 4.3228e-09, cumulative = 3.90861e-07
GAMG:  Solving for p, Initial residual = 0.00498567, Final residual = 8.01444e-08, No Iterations 11
time step continuity errors : sum local = 1.33125e-10, global = 8.02372e-11, cumulative = 3.90941e-07
ExecutionTime = 0.74 s  ClockTime = 0 s

Courant Number mean: 0.326776 max: 0.711799
deltaT = 0.0002
Time = 0.012

smoothSolver:  Solving for Ux, Initial residual = 0.00584907, Final residual = 6.81271e-06, No Iterations 2
smoothSolver:  Solving for Uy, Initial residual = 0.00954729, Final residual = 6.15849e-06, No Iterations 2
smoothSolver:  Solving for Uz, Initial residual = 0.0137353, Final residual = 7.96567e-06, No Iterations 2
GAMG:  Solving for p, Initial residual = 0.0217629, Final residual = 0.000163925, No Iterations 4
time step continuity errors : sum local = 2.7312e-07, global = 4.05632e-09, cumulative = 3.94998e-07
GAMG:  Solving for p, Initial residual = 0.00486716, Final residual = 7.75654e-08, No Iterations 11
time step continuity errors : sum local = 1.29477e-10, global = 7.7956e-11, cumulative = 3.95075e-07
ExecutionTime = 0.75 s  ClockTime = 0 s

Courant Number mean: 0.327012 max: 0.712014
deltaT = 0.0002
Time = 0.0122

smoothSolver:  Solving for Ux, Initial residual = 0.00577667, Final residual = 6.65781e-06, No Iterations 2
smoothSolver:  Solving for Uy, Initial residual = 0.00941342, Final residual = 6.3334e-06, No Iterations 2
smoothSolver:  Solving for Uz, Initial residual = 0.0135561, Final residual = 7.81768e-06, No Iterations 2
GAMG:  Solving for p, Initial residual = 0.0211558, Final residual = 0.000159145, No Iterations 4
time step continuity errors : sum local = 2.66333e-07, global = 3.63113e-09, cumulative = 3.98707e-07
GAMG:  Solving for p, Initial residual = 0.00475443, Final residual = 7.50893e-08, No Iterations 11
time step continuity errors : sum local = 1.25839e-10, global = 7.55562e-11, cumulative = 3.98782e-07
ExecutionTime = 0.76 s  ClockTime = 0 s

Courant Number mean: 0.327242 max: 0.711959
deltaT = 0.0002
Time = 0.0124

smoothSolver:  Solving for Ux, Initial residual = 0.00570774, Final residual = 6.50509e-06, No Iterations 2
smoothSolver:  Solving for Uy, Initial residual = 0.00930622, Final residual = 6.48433e-06, No Iterations 2
smoothSolver:  Solving for Uz, Initial residual = 0.0133794, Final residual = 7.63213e-06, No Iterations 2
GAMG:  Solving for p, Initial residual = 0.0206228, Final residual = 0.0001544, No Iterations 4
time step continuity errors : sum local = 2.59616e-07, global = 3.28647e-09, cumulative = 4.02069e-07
GAMG:  Solving for p, Initial residual = 0.00462819, Final residual = 7.27115e-08, No Iterations 11
time step continuity errors : sum local = 1.22487e-10, global = 7.33461e-11, cumulative = 4.02142e-07
ExecutionTime = 0.77 s  ClockTime = 0 s

Courant Number mean: 0.327465 max: 0.711664
deltaT = 0.0002
Time = 0.0126

smoothSolver:  Solving for Ux, Initial residual = 0.00563754, Final residual = 6.36031e-06, No Iterations 2
smoothSolver:  Solving for Uy, Initial residual = 0.00920683, Final residual = 6.6414e-06, No Iterations 2
smoothSolver:  Solving for Uz, Initial residual = 0.0131736, Final residual = 7.40643e-06, No Iterations 2
GAMG:  Solving for p, Initial residual = 0.0200653, Final residual = 0.000149941, No Iterations 4
[...]
GAMG:  Solving for p, Initial residual = 0.000333732, Final residual = 2.85434e-06, No Iterations 4
time step continuity errors : sum local = 4.21306e-09, global = 1.31031e-09, cumulative = 3.11551e-06
GAMG:  Solving for p, Initial residual = 0.000143962, Final residual = 9.2571e-08, No Iterations 6
time step continuity errors : sum local = 1.3664e-10, global = 7.30937e-11, cumulative = 3.11558e-06
ExecutionTime = 12.18 s  ClockTime = 12 s

Courant Number mean: 0.3447 max: 0.60843
deltaT = 0.0002
Time = 0.2956

smoothSolver:  Solving for Ux, Initial residual = 0.000118641, Final residual = 2.64796e-06, No Iterations 1
smoothSolver:  Solving for Uy, Initial residual = 0.00042159, Final residual = 3.04246e-07, No Iterations 2
smoothSolver:  Solving for Uz, Initial residual = 0.000165267, Final residual = 3.93736e-06, No Iterations 1
GAMG:  Solving for p, Initial residual = 0.000333131, Final residual = 2.84988e-06, No Iterations 4
time step continuity errors : sum local = 4.20685e-09, global = 1.30896e-09, cumulative = 3.11689e-06
GAMG:  Solving for p, Initial residual = 0.000143672, Final residual = 9.24177e-08, No Iterations 6
time step continuity errors : sum local = 1.36426e-10, global = 7.29927e-11, cumulative = 3.11696e-06
ExecutionTime = 12.19 s  ClockTime = 12 s

Courant Number mean: 0.344703 max: 0.60843
deltaT = 0.0002
Time = 0.2958

smoothSolver:  Solving for Ux, Initial residual = 0.000118437, Final residual = 2.64297e-06, No Iterations 1
smoothSolver:  Solving for Uy, Initial residual = 0.000420835, Final residual = 3.03554e-07, No Iterations 2
smoothSolver:  Solving for Uz, Initial residual = 0.000164962, Final residual = 3.93065e-06, No Iterations 1
GAMG:  Solving for p, Initial residual = 0.000332624, Final residual = 2.84537e-06, No Iterations 4
time step continuity errors : sum local = 4.20057e-09, global = 1.30759e-09, cumulative = 3.11827e-06
GAMG:  Solving for p, Initial residual = 0.000143382, Final residual = 9.22642e-08, No Iterations 6
time step continuity errors : sum local = 1.36211e-10, global = 7.28911e-11, cumulative = 3.11834e-06
ExecutionTime = 12.2 s  ClockTime = 12 s

Courant Number mean: 0.344706 max: 0.60843
deltaT = 0.0002
Time = 0.296

smoothSolver:  Solving for Ux, Initial residual = 0.000118234, Final residual = 2.63798e-06, No Iterations 1
smoothSolver:  Solving for Uy, Initial residual = 0.000420082, Final residual = 3.02865e-07, No Iterations 2
smoothSolver:  Solving for Uz, Initial residual = 0.000164662, Final residual = 3.92388e-06, No Iterations 1
GAMG:  Solving for p, Initial residual = 0.000331993, Final residual = 2.84076e-06, No Iterations 4
time step continuity errors : sum local = 4.19413e-09, global = 1.30618e-09, cumulative = 3.11965e-06
GAMG:  Solving for p, Initial residual = 0.000143092, Final residual = 9.21117e-08, No Iterations 6
time step continuity errors : sum local = 1.35998e-10, global = 7.27881e-11, cumulative = 3.11972e-06
ExecutionTime = 12.21 s  ClockTime = 12 s

Courant Number mean: 0.344709 max: 0.60843
deltaT = 0.0002
Time = 0.2962

smoothSolver:  Solving for Ux, Initial residual = 0.000118031, Final residual = 2.63299e-06, No Iterations 1
smoothSolver:  Solving for Uy, Initial residual = 0.000419329, Final residual = 3.02181e-07, No Iterations 2
smoothSolver:  Solving for Uz, Initial residual = 0.000164364, Final residual = 3.91703e-06, No Iterations 1
GAMG:  Solving for p, Initial residual = 0.00033137, Final residual = 2.83616e-06, No Iterations 4
time step continuity errors : sum local = 4.18771e-09, global = 1.30487e-09, cumulative = 3.12102e-06
GAMG:  Solving for p, Initial residual = 0.000142802, Final residual = 9.19598e-08, No Iterations 6
time step continuity errors : sum local = 1.35786e-10, global = 7.26874e-11, cumulative = 3.1211e-06
ExecutionTime = 12.22 s  ClockTime = 12 s

Courant Number mean: 0.344711 max: 0.60843
deltaT = 0.0002
Time = 0.2964

smoothSolver:  Solving for Ux, Initial residual = 0.000117828, Final residual = 2.628e-06, No Iterations 1
smoothSolver:  Solving for Uy, Initial residual = 0.000418574, Final residual = 3.01499e-07, No Iterations 2
smoothSolver:  Solving for Uz, Initial residual = 0.000164068, Final residual = 3.91011e-06, No Iterations 1
GAMG:  Solving for p, Initial residual = 0.000330734, Final residual = 2.83151e-06, No Iterations 4
time step continuity errors : sum local = 4.18122e-09, global = 1.30355e-09, cumulative = 3.1224e-06
GAMG:  Solving for p, Initial residual = 0.000142513, Final residual = 9.18081e-08, No Iterations 6
time step continuity errors : sum local = 1.35574e-10, global = 7.25866e-11, cumulative = 3.12247e-06
ExecutionTime = 12.22 s  ClockTime = 12 s

Courant Number mean: 0.344714 max: 0.60843
deltaT = 0.0002
Time = 0.2966

smoothSolver:  Solving for Ux, Initial residual = 0.000117626, Final residual = 2.62302e-06, No Iterations 1
smoothSolver:  Solving for Uy, Initial residual = 0.000417819, Final residual = 3.0082e-07, No Iterations 2
smoothSolver:  Solving for Uz, Initial residual = 0.000163772, Final residual = 3.90311e-06, No Iterations 1
GAMG:  Solving for p, Initial residual = 0.000330052, Final residual = 2.82687e-06, No Iterations 4
time step continuity errors : sum local = 4.17472e-09, global = 1.30223e-09, cumulative = 3.12378e-06
GAMG:  Solving for p, Initial residual = 0.000142224, Final residual = 9.16557e-08, No Iterations 6
time step continuity errors : sum local = 1.3536e-10, global = 7.24857e-11, cumulative = 3.12385e-06
ExecutionTime = 12.23 s  ClockTime = 12 s

Courant Number mean: 0.344717 max: 0.60843
deltaT = 0.0002
Time = 0.2968

smoothSolver:  Solving for Ux, Initial residual = 0.000117423, Final residual = 2.61803e-06, No Iterations 1
smoothSolver:  Solving for Uy, Initial residual = 0.000417062, Final residual = 3.00145e-07, No Iterations 2
smoothSolver:  Solving for Uz, Initial residual = 0.000163476, Final residual = 3.89603e-06, No Iterations 1
GAMG:  Solving for p, Initial residual = 0.000329412, Final residual = 2.82213e-06, No Iterations 4
time step continuity errors : sum local = 4.16809e-09, global = 1.30092e-09, cumulative = 3.12515e-06
GAMG:  Solving for p, Initial residual = 0.000141935, Final residual = 9.15043e-08, No Iterations 6
time step continuity errors : sum local = 1.35148e-10, global = 7.23851e-11, cumulative = 3.12522e-06
ExecutionTime = 12.24 s  ClockTime = 12 s

Courant Number mean: 0.34472 max: 0.60843
deltaT = 0.0002
Time = 0.297

smoothSolver:  Solving for Ux, Initial residual = 0.000117221, Final residual = 2.61304e-06, No Iterations 1
smoothSolver:  Solving for Uy, Initial residual = 0.000416304, Final residual = 2.99475e-07, No Iterations 2
smoothSolver:  Solving for Uz, Initial residual = 0.00016318, Final residual = 3.88888e-06, No Iterations 1
GAMG:  Solving for p, Initial residual = 0.000328766, Final residual = 2.81737e-06, No Iterations 4
time step continuity errors : sum local = 4.16141e-09, global = 1.2996e-09, cumulative = 3.12652e-06
GAMG:  Solving for p, Initial residual = 0.000141647, Final residual = 9.13532e-08, No Iterations 6
time step continuity errors : sum local = 1.34937e-10, global = 7.22843e-11, cumulative = 3.12659e-06
ExecutionTime = 12.25 s  ClockTime = 12 s

Courant Number mean: 0.344723 max: 0.60843
deltaT = 0.0002
Time = 0.2972

smoothSolver:  Solving for Ux, Initial residual = 0.000117019, Final residual = 2.60806e-06, No Iterations 1
smoothSolver:  Solving for Uy, Initial residual = 0.000415545, Final residual = 2.98812e-07, No Iterations 2
smoothSolver:  Solving for Uz, Initial residual = 0.000162885, Final residual = 3.88169e-06, No Iterations 1
GAMG:  Solving for p, Initial residual = 0.000328114, Final residual = 2.81256e-06, No Iterations 4
time step continuity errors : sum local = 4.15466e-09, global = 1.29828e-09, cumulative = 3.12789e-06
GAMG:  Solving for p, Initial residual = 0.000141363, Final residual = 9.12022e-08, No Iterations 6
time step continuity errors : sum local = 1.34725e-10, global = 7.21834e-11, cumulative = 3.12796e-06
ExecutionTime = 12.26 s  ClockTime = 12 s

Courant Number mean: 0.344726 max: 0.60843
deltaT = 0.0002
Time = 0.2974

smoothSolver:  Solving for Ux, Initial residual = 0.000116817, Final residual = 2.60307e-06, No Iterations 1
smoothSolver:  Solving for Uy, Initial residual = 0.000414785, Final residual = 2.98153e-07, No Iterations 2
smoothSolver:  Solving for Uz, Initial residual = 0.000162592, Final residual = 3.87447e-06, No Iterations 1
GAMG:  Solving for p, Initial residual = 0.000327459, Final residual = 2.80771e-06, No Iterations 4
time step continuity errors : sum local = 4.14784e-09, global = 1.29697e-09, cumulative = 3.12926e-06
GAMG:  Solving for p, Initial residual = 0.000141079, Final residual = 9.10513e-08, No Iterations 6
time step continuity errors : sum local = 1.34513e-10, global = 7.20824e-11, cumulative = 3.12933e-06
ExecutionTime = 12.26 s  ClockTime = 12 s

Courant Number mean: 0.344729 max: 0.60843
deltaT = 0.0002
Time = 0.2976

smoothSolver:  Solving for Ux, Initial residual = 0.000116615, Final residual = 2.59809e-06, No Iterations 1
smoothSolver:  Solving for Uy, Initial residual = 0.000414026, Final residual = 2.97496e-07, No Iterations 2
smoothSolver:  Solving for Uz, Initial residual = 0.000162301, Final residual = 3.8672e-06, No Iterations 1
GAMG:  Solving for p, Initial residual = 0.000326801, Final residual = 2.80281e-06, No Iterations 4
time step continuity errors : sum local = 4.14095e-09, global = 1.29565e-09, cumulative = 3.13063e-06
GAMG:  Solving for p, Initial residual = 0.000140795, Final residual = 9.09001e-08, No Iterations 6
time step continuity errors : sum local = 1.34302e-10, global = 7.19813e-11, cumulative = 3.1307e-06
ExecutionTime = 12.27 s  ClockTime = 12 s

Courant Number mean: 0.344731 max: 0.60843
deltaT = 0.0002
Time = 0.2978

smoothSolver:  Solving for Ux, Initial residual = 0.000116414, Final residual = 2.5931e-06, No Iterations 1
smoothSolver:  Solving for Uy, Initial residual = 0.000413268, Final residual = 2.96846e-07, No Iterations 2
smoothSolver:  Solving for Uz, Initial residual = 0.000162011, Final residual = 3.85988e-06, No Iterations 1
GAMG:  Solving for p, Initial residual = 0.000326136, Final residual = 2.79786e-06, No Iterations 4
time step continuity errors : sum local = 4.134e-09, global = 1.29432e-09, cumulative = 3.13199e-06
GAMG:  Solving for p, Initial residual = 0.00014051, Final residual = 9.07486e-08, No Iterations 6
time step continuity errors : sum local = 1.3409e-10, global = 7.188e-11, cumulative = 3.13207e-06
ExecutionTime = 12.28 s  ClockTime = 12 s

Courant Number mean: 0.344734 max: 0.60843
deltaT = 0.0002
Time = 0.298

smoothSolver:  Solving for Ux, Initial residual = 0.000116213, Final residual = 2.58812e-06, No Iterations 1
smoothSolver:  Solving for Uy, Initial residual = 0.000412512, Final residual = 2.96202e-07, No Iterations 2
smoothSolver:  Solving for Uz, Initial residual = 0.000161723, Final residual = 3.85251e-06, No Iterations 1
GAMG:  Solving for p, Initial residual = 0.000325466, Final residual = 2.79287e-06, No Iterations 4
time step continuity errors : sum local = 4.12699e-09, global = 1.293e-09, cumulative = 3.13336e-06
GAMG:  Solving for p, Initial residual = 0.000140225, Final residual = 9.05973e-08, No Iterations 6
time step continuity errors : sum local = 1.33878e-10, global = 7.17787e-11, cumulative = 3.13343e-06
ExecutionTime = 12.28 s  ClockTime = 12 s

Courant Number mean: 0.344737 max: 0.60843
deltaT = 0.0002
Time = 0.2982

smoothSolver:  Solving for Ux, Initial residual = 0.000116012, Final residual = 2.58314e-06, No Iterations 1
smoothSolver:  Solving for Uy, Initial residual = 0.000411756, Final residual = 2.9556e-07, No Iterations 2
smoothSolver:  Solving for Uz, Initial residual = 0.000161434, Final residual = 3.84514e-06, No Iterations 1
GAMG:  Solving for p, Initial residual = 0.000324794, Final residual = 2.78786e-06, No Iterations 4
time step continuity errors : sum local = 4.11994e-09, global = 1.29168e-09, cumulative = 3.13472e-06
GAMG:  Solving for p, Initial residual = 0.00013994, Final residual = 9.0446e-08, No Iterations 6
time step continuity errors : sum local = 1.33666e-10, global = 7.16772e-11, cumulative = 3.13479e-06
ExecutionTime = 12.29 s  ClockTime = 12 s

Courant Number mean: 0.34474 max: 0.60843
deltaT = 0.0002
Time = 0.2984

smoothSolver:  Solving for Ux, Initial residual = 0.000115811, Final residual = 2.57816e-06, No Iterations 1
smoothSolver:  Solving for Uy, Initial residual = 0.000410999, Final residual = 2.94922e-07, No Iterations 2
smoothSolver:  Solving for Uz, Initial residual = 0.000161148, Final residual = 3.83774e-06, No Iterations 1
GAMG:  Solving for p, Initial residual = 0.000324117, Final residual = 2.78281e-06, No Iterations 4
time step continuity errors : sum local = 4.11284e-09, global = 1.29035e-09, cumulative = 3.13608e-06
GAMG:  Solving for p, Initial residual = 0.000139655, Final residual = 9.02947e-08, No Iterations 6
time step continuity errors : sum local = 1.33454e-10, global = 7.15755e-11, cumulative = 3.13616e-06
ExecutionTime = 12.3 s  ClockTime = 12 s

Courant Number mean: 0.344742 max: 0.60843
deltaT = 0.0002
Time = 0.2986

smoothSolver:  Solving for Ux, Initial residual = 0.000115611, Final residual = 2.57319e-06, No Iterations 1
smoothSolver:  Solving for Uy, Initial residual = 0.00041024, Final residual = 2.94285e-07, No Iterations 2
smoothSolver:  Solving for Uz, Initial residual = 0.000160863, Final residual = 3.83032e-06, No Iterations 1
GAMG:  Solving for p, Initial residual = 0.000323441, Final residual = 2.77772e-06, No Iterations 4
time step continuity errors : sum local = 4.10567e-09, global = 1.28902e-09, cumulative = 3.13745e-06
GAMG:  Solving for p, Initial residual = 0.000139369, Final residual = 9.01434e-08, No Iterations 6
time step continuity errors : sum local = 1.33241e-10, global = 7.14737e-11, cumulative = 3.13752e-06
ExecutionTime = 12.31 s  ClockTime = 12 s

Courant Number mean: 0.344745 max: 0.60843
deltaT = 0.0002
Time = 0.2988

smoothSolver:  Solving for Ux, Initial residual = 0.00011541, Final residual = 2.56821e-06, No Iterations 1
smoothSolver:  Solving for Uy, Initial residual = 0.00040948, Final residual = 2.93651e-07, No Iterations 2
smoothSolver:  Solving for Uz, Initial residual = 0.000160582, Final residual = 3.82287e-06, No Iterations 1
GAMG:  Solving for p, Initial residual = 0.000322773, Final residual = 2.7726e-06, No Iterations 4
time step continuity errors : sum local = 4.09845e-09, global = 1.2877e-09, cumulative = 3.1388e-06
GAMG:  Solving for p, Initial residual = 0.000139084, Final residual = 8.99921e-08, No Iterations 6
time step continuity errors : sum local = 1.33029e-10, global = 7.13717e-11, cumulative = 3.13888e-06
ExecutionTime = 12.31 s  ClockTime = 12 s

Courant Number mean: 0.344748 max: 0.60843
deltaT = 0.0002
Time = 0.299

smoothSolver:  Solving for Ux, Initial residual = 0.00011521, Final residual = 2.56324e-06, No Iterations 1
smoothSolver:  Solving for Uy, Initial residual = 0.000408719, Final residual = 2.93019e-07, No Iterations 2
smoothSolver:  Solving for Uz, Initial residual = 0.000160301, Final residual = 3.8154e-06, No Iterations 1
GAMG:  Solving for p, Initial residual = 0.000322099, Final residual = 2.76745e-06, No Iterations 4
time step continuity errors : sum local = 4.09118e-09, global = 1.28636e-09, cumulative = 3.14016e-06
GAMG:  Solving for p, Initial residual = 0.0001388, Final residual = 8.98407e-08, No Iterations 6
time step continuity errors : sum local = 1.32816e-10, global = 7.12696e-11, cumulative = 3.14023e-06
ExecutionTime = 12.32 s  ClockTime = 12 s

Courant Number mean: 0.34475 max: 0.60843
deltaT = 0.0002
Time = 0.2992

smoothSolver:  Solving for Ux, Initial residual = 0.000115011, Final residual = 2.55827e-06, No Iterations 1
smoothSolver:  Solving for Uy, Initial residual = 0.000407958, Final residual = 2.92391e-07, No Iterations 2
smoothSolver:  Solving for Uz, Initial residual = 0.000160019, Final residual = 3.80792e-06, No Iterations 1
GAMG:  Solving for p, Initial residual = 0.000321419, Final residual = 2.76228e-06, No Iterations 4
time step continuity errors : sum local = 4.08387e-09, global = 1.28503e-09, cumulative = 3.14152e-06
GAMG:  Solving for p, Initial residual = 0.000138517, Final residual = 8.96892e-08, No Iterations 6
time step continuity errors : sum local = 1.32603e-10, global = 7.11672e-11, cumulative = 3.14159e-06
ExecutionTime = 12.33 s  ClockTime = 12 s

Courant Number mean: 0.344753 max: 0.608431
deltaT = 0.0002
Time = 0.2994

smoothSolver:  Solving for Ux, Initial residual = 0.000114811, Final residual = 2.55331e-06, No Iterations 1
smoothSolver:  Solving for Uy, Initial residual = 0.000407196, Final residual = 2.91765e-07, No Iterations 2
smoothSolver:  Solving for Uz, Initial residual = 0.000159738, Final residual = 3.80042e-06, No Iterations 1
GAMG:  Solving for p, Initial residual = 0.000320734, Final residual = 2.75707e-06, No Iterations 4
time step continuity errors : sum local = 4.07651e-09, global = 1.2837e-09, cumulative = 3.14287e-06
GAMG:  Solving for p, Initial residual = 0.000138234, Final residual = 8.95375e-08, No Iterations 6
time step continuity errors : sum local = 1.3239e-10, global = 7.10647e-11, cumulative = 3.14294e-06
ExecutionTime = 12.34 s  ClockTime = 12 s

Courant Number mean: 0.344756 max: 0.608431
deltaT = 0.0002
Time = 0.2996

smoothSolver:  Solving for Ux, Initial residual = 0.000114612, Final residual = 2.54834e-06, No Iterations 1
smoothSolver:  Solving for Uy, Initial residual = 0.000406433, Final residual = 2.91142e-07, No Iterations 2
smoothSolver:  Solving for Uz, Initial residual = 0.000159459, Final residual = 3.79291e-06, No Iterations 1
GAMG:  Solving for p, Initial residual = 0.000320042, Final residual = 2.75183e-06, No Iterations 4
time step continuity errors : sum local = 4.0691e-09, global = 1.28236e-09, cumulative = 3.14423e-06
GAMG:  Solving for p, Initial residual = 0.000137951, Final residual = 8.93857e-08, No Iterations 6
time step continuity errors : sum local = 1.32177e-10, global = 7.0962e-11, cumulative = 3.1443e-06
ExecutionTime = 12.34 s  ClockTime = 12 s

Courant Number mean: 0.344758 max: 0.608431
deltaT = 0.0002
Time = 0.2998

smoothSolver:  Solving for Ux, Initial residual = 0.000114413, Final residual = 2.54338e-06, No Iterations 1
smoothSolver:  Solving for Uy, Initial residual = 0.000405669, Final residual = 2.90521e-07, No Iterations 2
smoothSolver:  Solving for Uz, Initial residual = 0.000159181, Final residual = 3.78539e-06, No Iterations 1
GAMG:  Solving for p, Initial residual = 0.000319345, Final residual = 2.74655e-06, No Iterations 4
time step continuity errors : sum local = 4.06164e-09, global = 1.28102e-09, cumulative = 3.14558e-06
GAMG:  Solving for p, Initial residual = 0.000137668, Final residual = 8.92337e-08, No Iterations 6
time step continuity errors : sum local = 1.31963e-10, global = 7.08591e-11, cumulative = 3.14565e-06
ExecutionTime = 12.35 s  ClockTime = 12 s

Courant Number mean: 0.344761 max: 0.608431
deltaT = 0.0002
Time = 0.3

smoothSolver:  Solving for Ux, Initial residual = 0.000114214, Final residual = 2.53842e-06, No Iterations 1
smoothSolver:  Solving for Uy, Initial residual = 0.000404906, Final residual = 2.89903e-07, No Iterations 2
smoothSolver:  Solving for Uz, Initial residual = 0.000158903, Final residual = 3.77786e-06, No Iterations 1
GAMG:  Solving for p, Initial residual = 0.000318644, Final residual = 2.74126e-06, No Iterations 4
time step continuity errors : sum local = 4.05414e-09, global = 1.27968e-09, cumulative = 3.14693e-06
GAMG:  Solving for p, Initial residual = 0.000137385, Final residual = 8.90816e-08, No Iterations 6
time step continuity errors : sum local = 1.31749e-10, global = 7.0756e-11, cumulative = 3.147e-06
ExecutionTime = 12.36 s  ClockTime = 12 s

End

Finalising parallel run
