/*---------------------------------------------------------------------------*\
  =========                 |
  \\      /  F ield         | OpenFOAM: The Open Source CFD Toolbox
   \\    /   O peration     | Website:  https://openfoam.org
    \\  /    A nd           | Version:  6
     \\/     M anipulation  |
\*---------------------------------------------------------------------------*/
Build  : 6-fa1285188035
Exec   : pimpleFoam -parallel
Date   : Mar 05 2020
Time   : 19:43:32
Host   : "sakura-sekine-01"
PID    : 31356
I/O    : uncollated
Case   : /home/sekine/codes/OpenFOAM/pimpleFoam/flowAroundCylinder
nProcs : 6
Slaves : 
5
(
"sakura-sekine-01.31357"
"sakura-sekine-01.31358"
"sakura-sekine-01.31359"
"sakura-sekine-01.31360"
"sakura-sekine-01.31361"
)

Pstream initialized with:
    floatTransfer      : 0
    nProcsSimpleSum    : 0
    commsType          : nonBlocking
    polling iterations : 0
sigFpe : Enabling floating point exception trapping (FOAM_SIGFPE).
fileModificationChecking : Monitoring run-time modified files using timeStampMaster (fileModificationSkew 10)
allowSystemOperations : Allowing user-supplied system call operations

// * * * * * * * * * * * * * * * * * * * * * * * * * * * * * * * * * * * * * //
Create time

Create mesh for time = 0


PIMPLE: No convergence criteria found


PIMPLE: Operating solver in PISO mode

Reading field p

Reading field U

Reading/calculating face flux field phi

Selecting incompressible transport model Newtonian
Selecting turbulence model type LES
Selecting LES turbulence model Smagorinsky
Selecting LES delta type cubeRootVol
LES
{
    LESModel        Smagorinsky;
    turbulence      on;
    printCoeffs     on;
    delta           cubeRootVol;
    cubeRootVolCoeffs
    {
        deltaCoeff      1;
    }
    Ce              1.048;
    Ck              0.094;
}

No MRF models present

No finite volume options present
Courant Number mean: 2.66761e-06 max: 0.000904135

Starting time loop

Courant Number mean: 2.66761e-06 max: 0.000904135
deltaT = 1.19904e-06
Time = 1.19904e-06

smoothSolver:  Solving for Ux, Initial residual = 1, Final residual = 2.17999e-08, No Iterations 2
smoothSolver:  Solving for Uy, Initial residual = 1, Final residual = 8.68333e-09, No Iterations 2
smoothSolver:  Solving for Uz, Initial residual = 1, Final residual = 1.66196e-08, No Iterations 2
GAMG:  Solving for p, Initial residual = 1, Final residual = 0.00916763, No Iterations 10
time step continuity errors : sum local = 5.86469e-08, global = -5.42047e-10, cumulative = -5.42047e-10
GAMG:  Solving for p, Initial residual = 0.0468054, Final residual = 9.98053e-08, No Iterations 579
time step continuity errors : sum local = 3.21926e-10, global = -1.88813e-14, cumulative = -5.42066e-10
ExecutionTime = 2.16 s  ClockTime = 2 s

Courant Number mean: 0.00208349 max: 0.0362197
deltaT = 1.43712e-06
Time = 2.63616e-06

smoothSolver:  Solving for Ux, Initial residual = 0.903477, Final residual = 7.50561e-08, No Iterations 2
smoothSolver:  Solving for Uy, Initial residual = 0.371322, Final residual = 1.53528e-07, No Iterations 2
smoothSolver:  Solving for Uz, Initial residual = 0.337289, Final residual = 7.23388e-08, No Iterations 2
GAMG:  Solving for p, Initial residual = 0.0036311, Final residual = 2.55363e-05, No Iterations 8
time step continuity errors : sum local = 1.23935e-07, global = 2.08698e-09, cumulative = 1.54492e-09
GAMG:  Solving for p, Initial residual = 0.911804, Final residual = 3.45787e-07, No Iterations 1000
time step continuity errors : sum local = 8.19078e-11, global = 5.54391e-15, cumulative = 1.54492e-09
ExecutionTime = 5.66 s  ClockTime = 6 s

Courant Number mean: 0.00249736 max: 0.0433614
deltaT = 1.72256e-06
Time = 4.35873e-06

smoothSolver:  Solving for Ux, Initial residual = 0.00552796, Final residual = 5.88144e-07, No Iterations 1
smoothSolver:  Solving for Uy, Initial residual = 0.00551659, Final residual = 6.61999e-07, No Iterations 1
smoothSolver:  Solving for Uz, Initial residual = 0.690527, Final residual = 2.12344e-07, No Iterations 2
GAMG:  Solving for p, Initial residual = 0.620137, Final residual = 0.0035447, No Iterations 2
time step continuity errors : sum local = 6.71447e-08, global = 4.50682e-09, cumulative = 6.05175e-09
GAMG:  Solving for p, Initial residual = 0.185591, Final residual = 1.88223e-05, No Iterations 1000
time step continuity errors : sum local = 8.41504e-11, global = -1.37586e-15, cumulative = 6.05174e-09
ExecutionTime = 9.25 s  ClockTime = 9 s

Courant Number mean: 0.00299335 max: 0.0516964
deltaT = 2.06565e-06
Time = 6.42437e-06

smoothSolver:  Solving for Ux, Initial residual = 0.000925525, Final residual = 3.95266e-07, No Iterations 1
smoothSolver:  Solving for Uy, Initial residual = 0.00132734, Final residual = 5.4185e-07, No Iterations 1
smoothSolver:  Solving for Uz, Initial residual = 0.237963, Final residual = 2.13949e-07, No Iterations 2
GAMG:  Solving for p, Initial residual = 0.0949516, Final residual = 0.000716948, No Iterations 2
time step continuity errors : sum local = 1.90721e-09, global = 8.53111e-11, cumulative = 6.13706e-09
GAMG:  Solving for p, Initial residual = 0.00780579, Final residual = 1.08883e-05, No Iterations 1000
time step continuity errors : sum local = 2.74574e-11, global = -1.85957e-15, cumulative = 6.13705e-09
ExecutionTime = 12.76 s  ClockTime = 13 s

Courant Number mean: 0.0035895 max: 0.0617191
deltaT = 2.47774e-06
Time = 8.90212e-06

smoothSolver:  Solving for Ux, Initial residual = 0.0010387, Final residual = 5.07647e-07, No Iterations 1
smoothSolver:  Solving for Uy, Initial residual = 0.00150808, Final residual = 7.07999e-07, No Iterations 1
smoothSolver:  Solving for Uz, Initial residual = 0.221318, Final residual = 2.4617e-07, No Iterations 2
GAMG:  Solving for p, Initial residual = 0.0326616, Final residual = 0.000167471, No Iterations 2
time step continuity errors : sum local = 5.77559e-10, global = 3.76373e-12, cumulative = 6.14082e-09
GAMG:  Solving for p, Initial residual = 0.0018893, Final residual = 4.12897e-06, No Iterations 1000
time step continuity errors : sum local = 1.38674e-11, global = 5.13027e-16, cumulative = 6.14082e-09
ExecutionTime = 16.46 s  ClockTime = 16 s

Courant Number mean: 0.00430557 max: 0.0737721
deltaT = 2.96736e-06
Time = 1.18695e-05

smoothSolver:  Solving for Ux, Initial residual = 0.00119363, Final residual = 6.37199e-07, No Iterations 1
smoothSolver:  Solving for Uy, Initial residual = 0.00172999, Final residual = 9.11925e-07, No Iterations 1
smoothSolver:  Solving for Uz, Initial residual = 0.160903, Final residual = 2.61842e-07, No Iterations 2
GAMG:  Solving for p, Initial residual = 0.0326106, Final residual = 0.000136164, No Iterations 2
time step continuity errors : sum local = 6.3404e-10, global = 2.83392e-13, cumulative = 6.1411e-09
GAMG:  Solving for p, Initial residual = 0.00178589, Final residual = 3.24376e-06, No Iterations 1000
time step continuity errors : sum local = 1.47089e-11, global = 8.75113e-16, cumulative = 6.1411e-09
ExecutionTime = 20.16 s  ClockTime = 20 s

Courant Number mean: 0.00515632 max: 0.088114
deltaT = 3.55443e-06
Time = 1.54239e-05

smoothSolver:  Solving for Ux, Initial residual = 0.00136971, Final residual = 7.84161e-07, No Iterations 1
smoothSolver:  Solving for Uy, Initial residual = 0.00198149, Final residual = 1.16583e-06, No Iterations 1
smoothSolver:  Solving for Uz, Initial residual = 0.130037, Final residual = 3.17271e-07, No Iterations 2
GAMG:  Solving for p, Initial residual = 0.0335279, Final residual = 0.00012257, No Iterations 2
time step continuity errors : sum local = 7.70708e-10, global = 2.87646e-14, cumulative = 6.14113e-09
GAMG:  Solving for p, Initial residual = 0.0018504, Final residual = 3.93817e-07, No Iterations 1000
time step continuity errors : sum local = 2.4111e-12, global = 1.72448e-16, cumulative = 6.14113e-09
ExecutionTime = 24.19 s  ClockTime = 24 s

Courant Number mean: 0.0061764 max: 0.105499
deltaT = 4.26223e-06
Time = 1.96861e-05

smoothSolver:  Solving for Ux, Initial residual = 0.0015707, Final residual = 9.52626e-07, No Iterations 1
smoothSolver:  Solving for Uy, Initial residual = 0.00226814, Final residual = 1.48813e-06, No Iterations 1
smoothSolver:  Solving for Uz, Initial residual = 0.118149, Final residual = 4.23838e-07, No Iterations 2
GAMG:  Solving for p, Initial residual = 0.0346073, Final residual = 0.000113855, No Iterations 2
time step continuity errors : sum local = 9.67673e-10, global = -1.12984e-13, cumulative = 6.14102e-09
GAMG:  Solving for p, Initial residual = 0.00193577, Final residual = 4.0755e-07, No Iterations 1000
time step continuity errors : sum local = 3.37119e-12, global = -2.03144e-16, cumulative = 6.14102e-09
ExecutionTime = 28.17 s  ClockTime = 28 s

Courant Number mean: 0.00740627 max: 0.126632
deltaT = 5.1058e-06
Time = 2.47919e-05

smoothSolver:  Solving for Ux, Initial residual = 0.00179613, Final residual = 1.17654e-06, No Iterations 1
smoothSolver:  Solving for Uy, Initial residual = 0.00258866, Final residual = 1.89889e-06, No Iterations 1
smoothSolver:  Solving for Uz, Initial residual = 0.108458, Final residual = 5.84207e-07, No Iterations 2
GAMG:  Solving for p, Initial residual = 0.0358497, Final residual = 0.000108581, No Iterations 2
time step continuity errors : sum local = 1.24237e-09, global = -4.4739e-13, cumulative = 6.14057e-09
GAMG:  Solving for p, Initial residual = 0.00203739, Final residual = 2.04037e-07, No Iterations 1000
time step continuity errors : sum local = 2.27002e-12, global = -1.42091e-16, cumulative = 6.14057e-09
ExecutionTime = 32.18 s  ClockTime = 32 s

Courant Number mean: 0.00887202 max: 0.151813
deltaT = 6.09505e-06
Time = 3.0887e-05

smoothSolver:  Solving for Ux, Initial residual = 0.00204317, Final residual = 1.59079e-06, No Iterations 1
smoothSolver:  Solving for Uy, Initial residual = 0.00293834, Final residual = 2.43629e-06, No Iterations 1
smoothSolver:  Solving for Uz, Initial residual = 0.101013, Final residual = 8.02233e-07, No Iterations 2
GAMG:  Solving for p, Initial residual = 0.0372992, Final residual = 0.000105975, No Iterations 2
time step continuity errors : sum local = 1.61761e-09, global = -1.21238e-12, cumulative = 6.13936e-09
GAMG:  Solving for p, Initial residual = 0.00215342, Final residual = 9.80097e-08, No Iterations 50
time step continuity errors : sum local = 1.4538e-12, global = 1.31306e-15, cumulative = 6.13936e-09
ExecutionTime = 32.51 s  ClockTime = 32 s

Courant Number mean: 0.0105909 max: 0.18131
deltaT = 7.28656e-06
Time = 3.81736e-05

smoothSolver:  Solving for Ux, Initial residual = 0.00232378, Final residual = 2.33911e-06, No Iterations 1
smoothSolver:  Solving for Uy, Initial residual = 0.00333222, Final residual = 3.19149e-06, No Iterations 1
smoothSolver:  Solving for Uz, Initial residual = 0.0953214, Final residual = 1.12394e-06, No Iterations 2
GAMG:  Solving for p, Initial residual = 0.0391889, Final residual = 0.000103984, No Iterations 2
time step continuity errors : sum local = 2.11848e-09, global = -2.33461e-12, cumulative = 6.13702e-09
GAMG:  Solving for p, Initial residual = 0.00229467, Final residual = 9.96147e-08, No Iterations 135
time step continuity errors : sum local = 1.9706e-12, global = 3.07074e-16, cumulative = 6.13702e-09
ExecutionTime = 33.13 s  ClockTime = 33 s

Courant Number mean: 0.0126611 max: 0.216765
deltaT = 8.74388e-06
Time = 4.69174e-05

smoothSolver:  Solving for Ux, Initial residual = 0.00264698, Final residual = 3.46806e-06, No Iterations 1
smoothSolver:  Solving for Uy, Initial residual = 0.00378302, Final residual = 4.33842e-06, No Iterations 1
smoothSolver:  Solving for Uz, Initial residual = 0.0910649, Final residual = 1.60783e-06, No Iterations 2
GAMG:  Solving for p, Initial residual = 0.0414465, Final residual = 0.000101774, No Iterations 2
time step continuity errors : sum local = 2.78059e-09, global = -3.87458e-12, cumulative = 6.13315e-09
GAMG:  Solving for p, Initial residual = 0.00247351, Final residual = 9.98659e-08, No Iterations 195
time step continuity errors : sum local = 2.64762e-12, global = 2.32607e-16, cumulative = 6.13315e-09
ExecutionTime = 34.1 s  ClockTime = 34 s

Courant Number mean: 0.0151932 max: 0.260016
deltaT = 1.04734e-05
Time = 5.73909e-05

smoothSolver:  Solving for Ux, Initial residual = 0.00299825, Final residual = 5.03069e-06, No Iterations 1
smoothSolver:  Solving for Uy, Initial residual = 0.00427385, Final residual = 5.95727e-06, No Iterations 1
smoothSolver:  Solving for Uz, Initial residual = 0.0874089, Final residual = 2.26724e-06, No Iterations 2
GAMG:  Solving for p, Initial residual = 0.0438607, Final residual = 9.92183e-05, No Iterations 2
time step continuity errors : sum local = 3.61195e-09, global = -5.6968e-12, cumulative = 6.12745e-09
GAMG:  Solving for p, Initial residual = 0.0026907, Final residual = 9.89397e-08, No Iterations 69
time step continuity errors : sum local = 3.49154e-12, global = 1.85044e-15, cumulative = 6.12746e-09
ExecutionTime = 34.57 s  ClockTime = 35 s

Courant Number mean: 0.0181982 max: 0.311196
deltaT = 1.25681e-05
Time = 6.9959e-05

smoothSolver:  Solving for Ux, Initial residual = 0.00338695, Final residual = 7.19979e-06, No Iterations 1
smoothSolver:  Solving for Uy, Initial residual = 0.00482016, Final residual = 8.22083e-06, No Iterations 1
smoothSolver:  Solving for Uz, Initial residual = 0.0844933, Final residual = 3.25529e-06, No Iterations 2
GAMG:  Solving for p, Initial residual = 0.0462979, Final residual = 9.67945e-05, No Iterations 2
time step continuity errors : sum local = 4.69504e-09, global = -6.89224e-12, cumulative = 6.12056e-09
GAMG:  Solving for p, Initial residual = 0.0029496, Final residual = 9.94388e-08, No Iterations 77
time step continuity errors : sum local = 4.67008e-12, global = 2.07314e-15, cumulative = 6.12057e-09
ExecutionTime = 35.09 s  ClockTime = 35 s

Courant Number mean: 0.0218374 max: 0.373011
deltaT = 1.50007e-05
Time = 8.49596e-05

smoothSolver:  Solving for Ux, Initial residual = 0.00378491, Final residual = 1.01674e-06, No Iterations 2
smoothSolver:  Solving for Uy, Initial residual = 0.00538422, Final residual = 6.19522e-07, No Iterations 2
smoothSolver:  Solving for Uz, Initial residual = 0.0816445, Final residual = 4.60942e-06, No Iterations 2
GAMG:  Solving for p, Initial residual = 0.0487191, Final residual = 0.000106343, No Iterations 2
time step continuity errors : sum local = 6.7784e-09, global = -2.85709e-11, cumulative = 6.09199e-09
GAMG:  Solving for p, Initial residual = 0.00322412, Final residual = 9.97273e-08, No Iterations 137
time step continuity errors : sum local = 6.15095e-12, global = -2.07251e-17, cumulative = 6.09199e-09
ExecutionTime = 35.86 s  ClockTime = 36 s

Courant Number mean: 0.0260635 max: 0.445719
deltaT = 1.7942e-05
Time = 0.000102902

smoothSolver:  Solving for Ux, Initial residual = 0.00421471, Final residual = 1.72932e-06, No Iterations 2
smoothSolver:  Solving for Uy, Initial residual = 0.00599911, Final residual = 1.07768e-06, No Iterations 2
smoothSolver:  Solving for Uz, Initial residual = 0.0794697, Final residual = 6.50964e-06, No Iterations 2
GAMG:  Solving for p, Initial residual = 0.0510696, Final residual = 0.000106066, No Iterations 2
time step continuity errors : sum local = 8.88856e-09, global = -3.62794e-11, cumulative = 6.05571e-09
GAMG:  Solving for p, Initial residual = 0.00353322, Final residual = 9.98577e-08, No Iterations 402
time step continuity errors : sum local = 8.08625e-12, global = -5.39719e-16, cumulative = 6.05571e-09
ExecutionTime = 37.73 s  ClockTime = 38 s

Courant Number mean: 0.0311733 max: 0.53436
deltaT = 2.13595e-05
Time = 0.000124261

smoothSolver:  Solving for Ux, Initial residual = 0.00464056, Final residual = 2.79761e-06, No Iterations 2
smoothSolver:  Solving for Uy, Initial residual = 0.00661839, Final residual = 1.80285e-06, No Iterations 2
smoothSolver:  Solving for Uz, Initial residual = 0.0773534, Final residual = 8.9834e-06, No Iterations 2
GAMG:  Solving for p, Initial residual = 0.0537173, Final residual = 0.000113176, No Iterations 2
time step continuity errors : sum local = 1.23016e-08, global = -6.49769e-11, cumulative = 5.99074e-09
GAMG:  Solving for p, Initial residual = 0.00390616, Final residual = 9.98792e-08, No Iterations 285
time step continuity errors : sum local = 1.04757e-11, global = -8.0545e-16, cumulative = 5.99074e-09
ExecutionTime = 38.92 s  ClockTime = 39 s

Courant Number mean: 0.03711 max: 0.637339
deltaT = 2.50211e-05
Time = 0.000149282

smoothSolver:  Solving for Ux, Initial residual = 0.00499246, Final residual = 4.18713e-06, No Iterations 2
smoothSolver:  Solving for Uy, Initial residual = 0.00714621, Final residual = 2.79134e-06, No Iterations 2
smoothSolver:  Solving for Uz, Initial residual = 0.0746, Final residual = 2.4771e-06, No Iterations 3
GAMG:  Solving for p, Initial residual = 0.0563068, Final residual = 0.000121261, No Iterations 2
time step continuity errors : sum local = 1.65018e-08, global = -1.15573e-10, cumulative = 5.87516e-09
GAMG:  Solving for p, Initial residual = 0.00429726, Final residual = 9.98771e-08, No Iterations 227
time step continuity errors : sum local = 1.30894e-11, global = -1.13315e-15, cumulative = 5.87516e-09
ExecutionTime = 39.96 s  ClockTime = 40 s

Courant Number mean: 0.0434705 max: 0.747368
deltaT = 2.93351e-05
Time = 0.000178617

smoothSolver:  Solving for Ux, Initial residual = 0.00534, Final residual = 6.1187e-06, No Iterations 2
smoothSolver:  Solving for Uy, Initial residual = 0.00768758, Final residual = 4.21618e-06, No Iterations 2
smoothSolver:  Solving for Uz, Initial residual = 0.0725477, Final residual = 3.47753e-06, No Iterations 3
GAMG:  Solving for p, Initial residual = 0.0591671, Final residual = 0.000129294, No Iterations 2
time step continuity errors : sum local = 2.1935e-08, global = -1.74826e-10, cumulative = 5.70034e-09
GAMG:  Solving for p, Initial residual = 0.00477325, Final residual = 9.99111e-08, No Iterations 238
time step continuity errors : sum local = 1.62852e-11, global = -1.55853e-15, cumulative = 5.70034e-09
ExecutionTime = 40.98 s  ClockTime = 41 s

Courant Number mean: 0.0509637 max: 0.877578
deltaT = 3.42243e-05
Time = 0.000212842

smoothSolver:  Solving for Ux, Initial residual = 0.00564308, Final residual = 8.59822e-06, No Iterations 2
smoothSolver:  Solving for Uy, Initial residual = 0.00818759, Final residual = 6.10643e-06, No Iterations 2
smoothSolver:  Solving for Uz, Initial residual = 0.0706964, Final residual = 4.65671e-06, No Iterations 3
GAMG:  Solving for p, Initial residual = 0.0623491, Final residual = 0.00013802, No Iterations 2
time step continuity errors : sum local = 2.87425e-08, global = -2.59083e-10, cumulative = 5.44125e-09
GAMG:  Solving for p, Initial residual = 0.00531248, Final residual = 9.98405e-08, No Iterations 259
time step continuity errors : sum local = 1.99287e-11, global = -2.02482e-15, cumulative = 5.44125e-09
ExecutionTime = 42.08 s  ClockTime = 42 s

Courant Number mean: 0.0594554 max: 1.02522
deltaT = 3.93579e-05
Time = 0.0002522

smoothSolver:  Solving for Ux, Initial residual = 0.005835, Final residual = 4.74571e-06, No Iterations 3
smoothSolver:  Solving for Uy, Initial residual = 0.00854864, Final residual = 8.28223e-06, No Iterations 2
smoothSolver:  Solving for Uz, Initial residual = 0.0686473, Final residual = 5.85306e-06, No Iterations 3
GAMG:  Solving for p, Initial residual = 0.0652589, Final residual = 0.000162554, No Iterations 2
time step continuity errors : sum local = 4.02601e-08, global = -6.09428e-10, cumulative = 4.83182e-09
GAMG:  Solving for p, Initial residual = 0.00586794, Final residual = 9.98641e-08, No Iterations 262
time step continuity errors : sum local = 2.36772e-11, global = -2.46565e-15, cumulative = 4.83182e-09
ExecutionTime = 43.33 s  ClockTime = 43 s

Courant Number mean: 0.0683707 max: 1.18014
deltaT = 4.67375e-05
Time = 0.000298937

smoothSolver:  Solving for Ux, Initial residual = 0.00618245, Final residual = 7.13302e-06, No Iterations 3
smoothSolver:  Solving for Uy, Initial residual = 0.00917152, Final residual = 4.9849e-06, No Iterations 3
smoothSolver:  Solving for Uz, Initial residual = 0.0693344, Final residual = 7.97416e-06, No Iterations 3
GAMG:  Solving for p, Initial residual = 0.0692518, Final residual = 0.000165159, No Iterations 2
time step continuity errors : sum local = 5.13007e-08, global = -6.29812e-10, cumulative = 4.20201e-09
GAMG:  Solving for p, Initial residual = 0.00652939, Final residual = 9.99193e-08, No Iterations 259
time step continuity errors : sum local = 2.96244e-11, global = -3.1313e-15, cumulative = 4.202e-09
ExecutionTime = 44.5 s  ClockTime = 44 s

Courant Number mean: 0.0811861 max: 1.40209
deltaT = 5.39279e-05
Time = 0.000352865

smoothSolver:  Solving for Ux, Initial residual = 0.00629395, Final residual = 9.66722e-06, No Iterations 3
smoothSolver:  Solving for Uy, Initial residual = 0.00947244, Final residual = 6.65713e-06, No Iterations 3
smoothSolver:  Solving for Uz, Initial residual = 0.0688369, Final residual = 9.90755e-06, No Iterations 3
GAMG:  Solving for p, Initial residual = 0.0724188, Final residual = 0.000178236, No Iterations 2
time step continuity errors : sum local = 6.55897e-08, global = -9.33775e-10, cumulative = 3.26823e-09
GAMG:  Solving for p, Initial residual = 0.0069718, Final residual = 9.99832e-08, No Iterations 277
time step continuity errors : sum local = 3.511e-11, global = -3.64148e-15, cumulative = 3.26823e-09
ExecutionTime = 45.64 s  ClockTime = 46 s

Courant Number mean: 0.0936708 max: 1.61729
deltaT = 6.47135e-05
Time = 0.000417578

smoothSolver:  Solving for Ux, Initial residual = 0.00660122, Final residual = 7.62276e-06, No Iterations 4
smoothSolver:  Solving for Uy, Initial residual = 0.0101145, Final residual = 5.19367e-06, No Iterations 4
smoothSolver:  Solving for Uz, Initial residual = 0.0715558, Final residual = 5.77761e-06, No Iterations 4
GAMG:  Solving for p, Initial residual = 0.0761672, Final residual = 0.000202716, No Iterations 2
time step continuity errors : sum local = 9.46541e-08, global = -1.39497e-09, cumulative = 1.87325e-09
GAMG:  Solving for p, Initial residual = 0.00770474, Final residual = 9.98622e-08, No Iterations 265
time step continuity errors : sum local = 4.44299e-11, global = -4.46921e-15, cumulative = 1.87325e-09
ExecutionTime = 46.79 s  ClockTime = 47 s

Courant Number mean: 0.112397 max: 1.9375
deltaT = 7.28027e-05
Time = 0.000490381

smoothSolver:  Solving for Ux, Initial residual = 0.00641612, Final residual = 9.44776e-06, No Iterations 4
smoothSolver:  Solving for Uy, Initial residual = 0.0100262, Final residual = 6.53908e-06, No Iterations 4
smoothSolver:  Solving for Uz, Initial residual = 0.0714219, Final residual = 6.84226e-06, No Iterations 4
GAMG:  Solving for p, Initial residual = 0.0779216, Final residual = 0.000198974, No Iterations 2
time step continuity errors : sum local = 1.04761e-07, global = -1.41447e-09, cumulative = 4.58783e-10
GAMG:  Solving for p, Initial residual = 0.00798263, Final residual = 9.9859e-08, No Iterations 284
time step continuity errors : sum local = 5.01191e-11, global = -4.7787e-15, cumulative = 4.58778e-10
ExecutionTime = 48.03 s  ClockTime = 48 s

Courant Number mean: 0.126436 max: 2.17252
deltaT = 8.49365e-05
Time = 0.000575318

smoothSolver:  Solving for Ux, Initial residual = 0.00644922, Final residual = 7.71405e-06, No Iterations 5
smoothSolver:  Solving for Uy, Initial residual = 0.0102626, Final residual = 9.07015e-06, No Iterations 4
smoothSolver:  Solving for Uz, Initial residual = 0.0749451, Final residual = 9.04014e-06, No Iterations 4
GAMG:  Solving for p, Initial residual = 0.078983, Final residual = 0.000210301, No Iterations 2
time step continuity errors : sum local = 1.33192e-07, global = -1.25385e-09, cumulative = -7.95068e-10
GAMG:  Solving for p, Initial residual = 0.00832059, Final residual = 9.99985e-08, No Iterations 265
time step continuity errors : sum local = 6.03792e-11, global = -5.44471e-15, cumulative = -7.95073e-10
ExecutionTime = 49.23 s  ClockTime = 49 s

Courant Number mean: 0.147495 max: 2.52071
deltaT = 8.49365e-05
Time = 0.000660254

smoothSolver:  Solving for Ux, Initial residual = 0.00556363, Final residual = 6.69095e-06, No Iterations 5
smoothSolver:  Solving for Uy, Initial residual = 0.00894818, Final residual = 8.24494e-06, No Iterations 4
smoothSolver:  Solving for Uz, Initial residual = 0.0695323, Final residual = 7.52846e-06, No Iterations 4
GAMG:  Solving for p, Initial residual = 0.0757254, Final residual = 0.000195867, No Iterations 2
time step continuity errors : sum local = 1.13853e-07, global = -1.34775e-09, cumulative = -2.14282e-09
GAMG:  Solving for p, Initial residual = 0.00764577, Final residual = 9.99286e-08, No Iterations 290
time step continuity errors : sum local = 5.55785e-11, global = -4.76162e-15, cumulative = -2.14283e-09
ExecutionTime = 50.46 s  ClockTime = 50 s

Courant Number mean: 0.147481 max: 2.50366
deltaT = 8.49365e-05
Time = 0.000745191

smoothSolver:  Solving for Ux, Initial residual = 0.0048767, Final residual = 9.98431e-06, No Iterations 4
smoothSolver:  Solving for Uy, Initial residual = 0.00788264, Final residual = 7.2042e-06, No Iterations 4
smoothSolver:  Solving for Uz, Initial residual = 0.0654517, Final residual = 6.5683e-06, No Iterations 4
GAMG:  Solving for p, Initial residual = 0.0691066, Final residual = 0.000166906, No Iterations 2
time step continuity errors : sum local = 8.9673e-08, global = 1.02562e-10, cumulative = -2.04027e-09
GAMG:  Solving for p, Initial residual = 0.00680926, Final residual = 9.99713e-08, No Iterations 241
time step continuity errors : sum local = 5.16218e-11, global = -4.27713e-15, cumulative = -2.04027e-09
ExecutionTime = 51.51 s  ClockTime = 51 s

Courant Number mean: 0.147468 max: 2.48435
deltaT = 8.49365e-05
Time = 0.000830127

smoothSolver:  Solving for Ux, Initial residual = 0.00431804, Final residual = 9.09035e-06, No Iterations 4
smoothSolver:  Solving for Uy, Initial residual = 0.00702051, Final residual = 6.37906e-06, No Iterations 4
smoothSolver:  Solving for Uz, Initial residual = 0.0623265, Final residual = 5.8718e-06, No Iterations 4
GAMG:  Solving for p, Initial residual = 0.0631929, Final residual = 0.000159752, No Iterations 2
time step continuity errors : sum local = 7.99893e-08, global = 6.61342e-10, cumulative = -1.37893e-09
GAMG:  Solving for p, Initial residual = 0.00599485, Final residual = 9.99869e-08, No Iterations 220
time step continuity errors : sum local = 4.82927e-11, global = -3.78822e-15, cumulative = -1.37893e-09
ExecutionTime = 52.43 s  ClockTime = 52 s

Courant Number mean: 0.147454 max: 2.46343
deltaT = 8.49365e-05
Time = 0.000915064

smoothSolver:  Solving for Ux, Initial residual = 0.00386431, Final residual = 8.27116e-06, No Iterations 4
smoothSolver:  Solving for Uy, Initial residual = 0.00631911, Final residual = 5.8368e-06, No Iterations 4
smoothSolver:  Solving for Uz, Initial residual = 0.0597072, Final residual = 5.25287e-06, No Iterations 4
GAMG:  Solving for p, Initial residual = 0.0583392, Final residual = 0.000144928, No Iterations 2
time step continuity errors : sum local = 6.80156e-08, global = 1.34258e-09, cumulative = -3.63482e-11
GAMG:  Solving for p, Initial residual = 0.00539594, Final residual = 9.97845e-08, No Iterations 208
time step continuity errors : sum local = 4.5297e-11, global = -3.49214e-15, cumulative = -3.63517e-11
ExecutionTime = 53.38 s  ClockTime = 53 s

Courant Number mean: 0.147441 max: 2.44162
deltaT = 8.49365e-05
Time = 0.001

smoothSolver:  Solving for Ux, Initial residual = 0.00349443, Final residual = 7.59079e-06, No Iterations 4
smoothSolver:  Solving for Uy, Initial residual = 0.00573597, Final residual = 9.82655e-06, No Iterations 3
smoothSolver:  Solving for Uz, Initial residual = 0.0576937, Final residual = 4.73056e-06, No Iterations 4
GAMG:  Solving for p, Initial residual = 0.0540082, Final residual = 0.000136885, No Iterations 2
time step continuity errors : sum local = 6.05118e-08, global = 1.79862e-09, cumulative = 1.76227e-09
GAMG:  Solving for p, Initial residual = 0.00492359, Final residual = 9.97683e-08, No Iterations 198
time step continuity errors : sum local = 4.27547e-11, global = -3.19471e-15, cumulative = 1.76227e-09
ExecutionTime = 54.29 s  ClockTime = 54 s

Courant Number mean: 0.147428 max: 2.44102
deltaT = 0.0001
Time = 0.0011

smoothSolver:  Solving for Ux, Initial residual = 0.00374812, Final residual = 6.65427e-06, No Iterations 5
smoothSolver:  Solving for Uy, Initial residual = 0.00618544, Final residual = 8.1662e-06, No Iterations 4
smoothSolver:  Solving for Uz, Initial residual = 0.0650226, Final residual = 6.93922e-06, No Iterations 4
GAMG:  Solving for p, Initial residual = 0.0551419, Final residual = 0.000151763, No Iterations 2
time step continuity errors : sum local = 8.42851e-08, global = 4.18809e-09, cumulative = 5.95036e-09
GAMG:  Solving for p, Initial residual = 0.00531142, Final residual = 9.97192e-08, No Iterations 178
time step continuity errors : sum local = 5.35605e-11, global = -3.14473e-15, cumulative = 5.95036e-09
ExecutionTime = 55.11 s  ClockTime = 55 s

Courant Number mean: 0.173556 max: 2.87431
deltaT = 0.0001125
Time = 0.0012125

smoothSolver:  Solving for Ux, Initial residual = 0.0038359, Final residual = 8.65585e-06, No Iterations 5
smoothSolver:  Solving for Uy, Initial residual = 0.00634475, Final residual = 6.09276e-06, No Iterations 5
smoothSolver:  Solving for Uz, Initial residual = 0.0702939, Final residual = 8.90843e-06, No Iterations 4
GAMG:  Solving for p, Initial residual = 0.0578505, Final residual = 0.000160289, No Iterations 2
time step continuity errors : sum local = 1.02567e-07, global = 5.5551e-09, cumulative = 1.15055e-08
GAMG:  Solving for p, Initial residual = 0.00582902, Final residual = 9.9739e-08, No Iterations 216
time step continuity errors : sum local = 6.15728e-11, global = -4.56986e-15, cumulative = 1.15055e-08
ExecutionTime = 56.05 s  ClockTime = 56 s

Courant Number mean: 0.195228 max: 3.23355
deltaT = 0.0001125
Time = 0.001325

smoothSolver:  Solving for Ux, Initial residual = 0.00349181, Final residual = 7.91603e-06, No Iterations 5
smoothSolver:  Solving for Uy, Initial residual = 0.0057658, Final residual = 9.12273e-06, No Iterations 4
smoothSolver:  Solving for Uz, Initial residual = 0.0686329, Final residual = 7.96937e-06, No Iterations 4
GAMG:  Solving for p, Initial residual = 0.0561445, Final residual = 0.000163095, No Iterations 2
time step continuity errors : sum local = 9.77441e-08, global = 5.70109e-09, cumulative = 1.72065e-08
GAMG:  Solving for p, Initial residual = 0.0055008, Final residual = 9.99409e-08, No Iterations 250
time step continuity errors : sum local = 5.78225e-11, global = -4.05704e-15, cumulative = 1.72065e-08
ExecutionTime = 57.14 s  ClockTime = 57 s

Courant Number mean: 0.195207 max: 3.23341
deltaT = 0.0001125
Time = 0.0014375

smoothSolver:  Solving for Ux, Initial residual = 0.00320617, Final residual = 7.1673e-06, No Iterations 5
smoothSolver:  Solving for Uy, Initial residual = 0.00527592, Final residual = 8.74332e-06, No Iterations 4
smoothSolver:  Solving for Uz, Initial residual = 0.067191, Final residual = 7.11938e-06, No Iterations 4
GAMG:  Solving for p, Initial residual = 0.0532171, Final residual = 0.000154214, No Iterations 2
time step continuity errors : sum local = 8.66712e-08, global = 5.8565e-09, cumulative = 2.3063e-08
GAMG:  Solving for p, Initial residual = 0.00512063, Final residual = 9.99699e-08, No Iterations 220
time step continuity errors : sum local = 5.43146e-11, global = -3.56603e-15, cumulative = 2.3063e-08
ExecutionTime = 58.15 s  ClockTime = 58 s

Courant Number mean: 0.195186 max: 3.23346
deltaT = 0.0001125
Time = 0.00155

smoothSolver:  Solving for Ux, Initial residual = 0.0029693, Final residual = 6.61415e-06, No Iterations 5
smoothSolver:  Solving for Uy, Initial residual = 0.00485733, Final residual = 7.85462e-06, No Iterations 4
smoothSolver:  Solving for Uz, Initial residual = 0.0656718, Final residual = 6.52058e-06, No Iterations 4
GAMG:  Solving for p, Initial residual = 0.0505658, Final residual = 0.000151209, No Iterations 2
time step continuity errors : sum local = 7.98983e-08, global = 5.98327e-09, cumulative = 2.90463e-08
GAMG:  Solving for p, Initial residual = 0.00478148, Final residual = 9.97202e-08, No Iterations 201
time step continuity errors : sum local = 5.10077e-11, global = -3.18353e-15, cumulative = 2.90463e-08
ExecutionTime = 59.04 s  ClockTime = 59 s

Courant Number mean: 0.195165 max: 3.23388
deltaT = 0.0001125
Time = 0.0016625

smoothSolver:  Solving for Ux, Initial residual = 0.00276467, Final residual = 9.92043e-06, No Iterations 4
smoothSolver:  Solving for Uy, Initial residual = 0.0044898, Final residual = 7.40361e-06, No Iterations 4
smoothSolver:  Solving for Uz, Initial residual = 0.0641433, Final residual = 5.98442e-06, No Iterations 4
GAMG:  Solving for p, Initial residual = 0.0488219, Final residual = 0.000132425, No Iterations 2
time step continuity errors : sum local = 6.59202e-08, global = 4.88966e-09, cumulative = 3.3936e-08
GAMG:  Solving for p, Initial residual = 0.00469451, Final residual = 9.97171e-08, No Iterations 188
time step continuity errors : sum local = 4.81197e-11, global = -2.82679e-15, cumulative = 3.3936e-08
ExecutionTime = 59.9 s  ClockTime = 60 s

Courant Number mean: 0.195146 max: 3.23466
deltaT = 0.0001125
Time = 0.001775

smoothSolver:  Solving for Ux, Initial residual = 0.00258848, Final residual = 9.39669e-06, No Iterations 4
smoothSolver:  Solving for Uy, Initial residual = 0.00416267, Final residual = 6.58784e-06, No Iterations 4
smoothSolver:  Solving for Uz, Initial residual = 0.0627614, Final residual = 5.60831e-06, No Iterations 4
GAMG:  Solving for p, Initial residual = 0.0464165, Final residual = 0.000141077, No Iterations 2
time step continuity errors : sum local = 6.63759e-08, global = 5.78739e-09, cumulative = 3.97234e-08
GAMG:  Solving for p, Initial residual = 0.00427894, Final residual = 9.97304e-08, No Iterations 176
time step continuity errors : sum local = 4.55533e-11, global = -2.9058e-15, cumulative = 3.97233e-08
ExecutionTime = 60.69 s  ClockTime = 61 s

Courant Number mean: 0.195126 max: 3.23569
deltaT = 0.0001125
Time = 0.0018875

smoothSolver:  Solving for Ux, Initial residual = 0.00243527, Final residual = 8.73981e-06, No Iterations 4
smoothSolver:  Solving for Uy, Initial residual = 0.00388657, Final residual = 6.33357e-06, No Iterations 4
smoothSolver:  Solving for Uz, Initial residual = 0.0614544, Final residual = 5.15245e-06, No Iterations 4
GAMG:  Solving for p, Initial residual = 0.0445976, Final residual = 0.000129616, No Iterations 2
time step continuity errors : sum local = 5.77447e-08, global = 5.04063e-09, cumulative = 4.4764e-08
GAMG:  Solving for p, Initial residual = 0.00412715, Final residual = 9.98724e-08, No Iterations 166
time step continuity errors : sum local = 4.32568e-11, global = -2.15711e-15, cumulative = 4.4764e-08
ExecutionTime = 61.45 s  ClockTime = 61 s

Courant Number mean: 0.195108 max: 3.23677
deltaT = 0.0001125
Time = 0.002

smoothSolver:  Solving for Ux, Initial residual = 0.00229848, Final residual = 8.22863e-06, No Iterations 4
smoothSolver:  Solving for Uy, Initial residual = 0.00363774, Final residual = 5.80231e-06, No Iterations 4
smoothSolver:  Solving for Uz, Initial residual = 0.0601608, Final residual = 4.78951e-06, No Iterations 4
GAMG:  Solving for p, Initial residual = 0.0424939, Final residual = 0.000129558, No Iterations 2
time step continuity errors : sum local = 5.48179e-08, global = 4.99824e-09, cumulative = 4.97622e-08
GAMG:  Solving for p, Initial residual = 0.00385535, Final residual = 9.99435e-08, No Iterations 152
time step continuity errors : sum local = 4.11738e-11, global = -1.97808e-15, cumulative = 4.97622e-08
ExecutionTime = 62.25 s  ClockTime = 62 s

Courant Number mean: 0.19509 max: 3.23758
deltaT = 0.000125
Time = 0.002125

smoothSolver:  Solving for Ux, Initial residual = 0.00241407, Final residual = 6.32026e-06, No Iterations 5
smoothSolver:  Solving for Uy, Initial residual = 0.00379475, Final residual = 7.44078e-06, No Iterations 4
smoothSolver:  Solving for Uz, Initial residual = 0.0647847, Final residual = 6.25612e-06, No Iterations 4
GAMG:  Solving for p, Initial residual = 0.0432759, Final residual = 0.000140619, No Iterations 2
time step continuity errors : sum local = 6.7664e-08, global = 6.28907e-09, cumulative = 5.60513e-08
GAMG:  Solving for p, Initial residual = 0.00412092, Final residual = 9.96444e-08, No Iterations 145
time step continuity errors : sum local = 4.66684e-11, global = -1.00362e-15, cumulative = 5.60513e-08
ExecutionTime = 63 s  ClockTime = 63 s

Courant Number mean: 0.216745 max: 3.59753
deltaT = 0.000125
Time = 0.00225

smoothSolver:  Solving for Ux, Initial residual = 0.00227988, Final residual = 9.55652e-06, No Iterations 4
smoothSolver:  Solving for Uy, Initial residual = 0.00355212, Final residual = 7.14875e-06, No Iterations 4
smoothSolver:  Solving for Uz, Initial residual = 0.0630029, Final residual = 5.77422e-06, No Iterations 4
GAMG:  Solving for p, Initial residual = 0.0429095, Final residual = 0.000118972, No Iterations 2
time step continuity errors : sum local = 5.44238e-08, global = 4.0357e-09, cumulative = 6.0087e-08
GAMG:  Solving for p, Initial residual = 0.004199, Final residual = 9.97102e-08, No Iterations 140
time step continuity errors : sum local = 4.44501e-11, global = 2.90054e-16, cumulative = 6.0087e-08
ExecutionTime = 63.71 s  ClockTime = 64 s

Courant Number mean: 0.216724 max: 3.59682
deltaT = 0.000125
Time = 0.002375

smoothSolver:  Solving for Ux, Initial residual = 0.00215707, Final residual = 9.14023e-06, No Iterations 4
smoothSolver:  Solving for Uy, Initial residual = 0.0033284, Final residual = 6.39846e-06, No Iterations 4
smoothSolver:  Solving for Uz, Initial residual = 0.0612, Final residual = 5.46551e-06, No Iterations 4
GAMG:  Solving for p, Initial residual = 0.0401813, Final residual = 0.000136158, No Iterations 2
time step continuity errors : sum local = 5.94555e-08, global = 5.31097e-09, cumulative = 6.5398e-08
GAMG:  Solving for p, Initial residual = 0.00378028, Final residual = 9.97193e-08, No Iterations 147
time step continuity errors : sum local = 4.25128e-11, global = -5.52351e-15, cumulative = 6.5398e-08
ExecutionTime = 64.36 s  ClockTime = 64 s

Courant Number mean: 0.216704 max: 3.59502
deltaT = 0.000125
Time = 0.0025

smoothSolver:  Solving for Ux, Initial residual = 0.00204743, Final residual = 8.55864e-06, No Iterations 4
smoothSolver:  Solving for Uy, Initial residual = 0.00313436, Final residual = 6.21913e-06, No Iterations 4
smoothSolver:  Solving for Uz, Initial residual = 0.0594533, Final residual = 5.08231e-06, No Iterations 4
GAMG:  Solving for p, Initial residual = 0.0381358, Final residual = 0.00012133, No Iterations 2
time step continuity errors : sum local = 5.07025e-08, global = 4.02904e-09, cumulative = 6.9427e-08
GAMG:  Solving for p, Initial residual = 0.00364305, Final residual = 9.98259e-08, No Iterations 136
time step continuity errors : sum local = 4.08118e-11, global = 7.26674e-15, cumulative = 6.9427e-08
ExecutionTime = 65.05 s  ClockTime = 65 s

Courant Number mean: 0.216685 max: 3.59215
deltaT = 0.000125
Time = 0.002625

smoothSolver:  Solving for Ux, Initial residual = 0.00194709, Final residual = 8.12594e-06, No Iterations 4
smoothSolver:  Solving for Uy, Initial residual = 0.00295513, Final residual = 5.72691e-06, No Iterations 4
smoothSolver:  Solving for Uz, Initial residual = 0.0577964, Final residual = 4.77889e-06, No Iterations 4
GAMG:  Solving for p, Initial residual = 0.0357622, Final residual = 0.000126752, No Iterations 2
time step continuity errors : sum local = 5.09164e-08, global = 3.98059e-09, cumulative = 7.34076e-08
GAMG:  Solving for p, Initial residual = 0.00336018, Final residual = 9.99817e-08, No Iterations 141
time step continuity errors : sum local = 3.93727e-11, global = 4.00103e-15, cumulative = 7.34076e-08
ExecutionTime = 65.77 s  ClockTime = 66 s

Courant Number mean: 0.216666 max: 3.58829
deltaT = 0.000125
Time = 0.00275

smoothSolver:  Solving for Ux, Initial residual = 0.00185757, Final residual = 7.65883e-06, No Iterations 4
smoothSolver:  Solving for Uy, Initial residual = 0.00279372, Final residual = 5.49086e-06, No Iterations 4
smoothSolver:  Solving for Uz, Initial residual = 0.0562627, Final residual = 4.513e-06, No Iterations 4
GAMG:  Solving for p, Initial residual = 0.033631, Final residual = 0.000120161, No Iterations 2
time step continuity errors : sum local = 4.65722e-08, global = 3.21421e-09, cumulative = 7.66218e-08
GAMG:  Solving for p, Initial residual = 0.00318812, Final residual = 9.98997e-08, No Iterations 148
time step continuity errors : sum local = 3.80424e-11, global = 1.24623e-14, cumulative = 7.66218e-08
ExecutionTime = 66.44 s  ClockTime = 66 s

Courant Number mean: 0.216647 max: 3.58351
deltaT = 0.000125
Time = 0.002875

smoothSolver:  Solving for Ux, Initial residual = 0.00177709, Final residual = 7.26999e-06, No Iterations 4
smoothSolver:  Solving for Uy, Initial residual = 0.00264419, Final residual = 9.62442e-06, No Iterations 3
smoothSolver:  Solving for Uz, Initial residual = 0.0548702, Final residual = 4.3224e-06, No Iterations 4
GAMG:  Solving for p, Initial residual = 0.0314482, Final residual = 0.000133901, No Iterations 2
time step continuity errors : sum local = 5.0312e-08, global = 2.79865e-09, cumulative = 7.94205e-08
GAMG:  Solving for p, Initial residual = 0.00315072, Final residual = 9.88102e-08, No Iterations 167
time step continuity errors : sum local = 3.6569e-11, global = -1.1225e-15, cumulative = 7.94205e-08
ExecutionTime = 67.23 s  ClockTime = 67 s

Courant Number mean: 0.21663 max: 3.57796
deltaT = 0.000125
Time = 0.003

smoothSolver:  Solving for Ux, Initial residual = 0.00170434, Final residual = 6.82115e-06, No Iterations 4
smoothSolver:  Solving for Uy, Initial residual = 0.0025113, Final residual = 9.65189e-06, No Iterations 3
smoothSolver:  Solving for Uz, Initial residual = 0.0535562, Final residual = 4.18559e-06, No Iterations 4
GAMG:  Solving for p, Initial residual = 0.0293327, Final residual = 0.00013453, No Iterations 2
time step continuity errors : sum local = 4.91905e-08, global = 2.4307e-09, cumulative = 8.18512e-08
GAMG:  Solving for p, Initial residual = 0.00281881, Final residual = 9.89036e-08, No Iterations 185
time step continuity errors : sum local = 3.56738e-11, global = 1.4528e-15, cumulative = 8.18512e-08
ExecutionTime = 68.11 s  ClockTime = 68 s

Courant Number mean: 0.216612 max: 3.57172
deltaT = 0.000125
Time = 0.003125

smoothSolver:  Solving for Ux, Initial residual = 0.00164084, Final residual = 6.52631e-06, No Iterations 4
smoothSolver:  Solving for Uy, Initial residual = 0.00239029, Final residual = 9.00888e-06, No Iterations 3
smoothSolver:  Solving for Uz, Initial residual = 0.0523393, Final residual = 4.22785e-06, No Iterations 4
GAMG:  Solving for p, Initial residual = 0.0272846, Final residual = 0.000151275, No Iterations 2
time step continuity errors : sum local = 5.39806e-08, global = 2.02358e-09, cumulative = 8.38747e-08
GAMG:  Solving for p, Initial residual = 0.00269389, Final residual = 9.98802e-08, No Iterations 227
time step continuity errors : sum local = 3.52153e-11, global = -5.67259e-15, cumulative = 8.38747e-08
ExecutionTime = 69.13 s  ClockTime = 69 s

Courant Number mean: 0.216595 max: 3.5649
deltaT = 0.000125
Time = 0.00325

smoothSolver:  Solving for Ux, Initial residual = 0.00158471, Final residual = 6.18544e-06, No Iterations 4
smoothSolver:  Solving for Uy, Initial residual = 0.00228364, Final residual = 8.75908e-06, No Iterations 3
smoothSolver:  Solving for Uz, Initial residual = 0.0511646, Final residual = 4.49253e-06, No Iterations 4
GAMG:  Solving for p, Initial residual = 0.0254786, Final residual = 0.000176405, No Iterations 2
time step continuity errors : sum local = 6.15962e-08, global = 1.67886e-09, cumulative = 8.55536e-08
GAMG:  Solving for p, Initial residual = 0.00249866, Final residual = 9.95161e-08, No Iterations 271
time step continuity errors : sum local = 3.43722e-11, global = 3.90344e-15, cumulative = 8.55536e-08
ExecutionTime = 70.41 s  ClockTime = 70 s

Courant Number mean: 0.216579 max: 3.55759
deltaT = 0.000125
Time = 0.003375

smoothSolver:  Solving for Ux, Initial residual = 0.0015346, Final residual = 5.90557e-06, No Iterations 4
smoothSolver:  Solving for Uy, Initial residual = 0.00218581, Final residual = 8.31487e-06, No Iterations 3
smoothSolver:  Solving for Uz, Initial residual = 0.050057, Final residual = 5.06804e-06, No Iterations 4
GAMG:  Solving for p, Initial residual = 0.0237382, Final residual = 0.000224623, No Iterations 2
time step continuity errors : sum local = 7.6921e-08, global = 1.39442e-09, cumulative = 8.6948e-08
GAMG:  Solving for p, Initial residual = 0.00238367, Final residual = 9.97335e-08, No Iterations 338
time step continuity errors : sum local = 3.3824e-11, global = -3.57394e-15, cumulative = 8.6948e-08
ExecutionTime = 71.98 s  ClockTime = 72 s

Courant Number mean: 0.216563 max: 3.54986
deltaT = 0.000125
Time = 0.0035

smoothSolver:  Solving for Ux, Initial residual = 0.00149027, Final residual = 5.62255e-06, No Iterations 4
smoothSolver:  Solving for Uy, Initial residual = 0.00209861, Final residual = 8.02274e-06, No Iterations 3
smoothSolver:  Solving for Uz, Initial residual = 0.0490252, Final residual = 6.23365e-06, No Iterations 4
GAMG:  Solving for p, Initial residual = 0.0221894, Final residual = 0.000214854, No Iterations 4
time step continuity errors : sum local = 7.2306e-08, global = 1.86203e-10, cumulative = 8.71342e-08
GAMG:  Solving for p, Initial residual = 0.0023075, Final residual = 9.98869e-08, No Iterations 394
time step continuity errors : sum local = 3.33244e-11, global = 2.7103e-15, cumulative = 8.71342e-08
ExecutionTime = 73.71 s  ClockTime = 74 s

Courant Number mean: 0.216547 max: 3.54183
deltaT = 0.000125
Time = 0.003625

smoothSolver:  Solving for Ux, Initial residual = 0.00145025, Final residual = 5.37065e-06, No Iterations 4
smoothSolver:  Solving for Uy, Initial residual = 0.00201803, Final residual = 7.663e-06, No Iterations 3
smoothSolver:  Solving for Uz, Initial residual = 0.0480461, Final residual = 7.08146e-06, No Iterations 4
GAMG:  Solving for p, Initial residual = 0.0207931, Final residual = 0.000197979, No Iterations 8
time step continuity errors : sum local = 6.55983e-08, global = -1.18036e-10, cumulative = 8.70162e-08
GAMG:  Solving for p, Initial residual = 0.00229869, Final residual = 9.95115e-08, No Iterations 437
time step continuity errors : sum local = 3.27224e-11, global = -2.25956e-15, cumulative = 8.70162e-08
ExecutionTime = 75.57 s  ClockTime = 76 s

Courant Number mean: 0.216531 max: 3.53353
deltaT = 0.000125
Time = 0.00375

smoothSolver:  Solving for Ux, Initial residual = 0.00141363, Final residual = 9.61832e-06, No Iterations 3
smoothSolver:  Solving for Uy, Initial residual = 0.00194711, Final residual = 7.37508e-06, No Iterations 3
smoothSolver:  Solving for Uz, Initial residual = 0.04709, Final residual = 6.65443e-06, No Iterations 4
GAMG:  Solving for p, Initial residual = 0.0197999, Final residual = 0.00018735, No Iterations 8
time step continuity errors : sum local = 6.12119e-08, global = -6.1985e-11, cumulative = 8.69542e-08
GAMG:  Solving for p, Initial residual = 0.00231977, Final residual = 9.95269e-08, No Iterations 475
time step continuity errors : sum local = 3.23283e-11, global = 9.46795e-16, cumulative = 8.69542e-08
ExecutionTime = 77.66 s  ClockTime = 78 s

Courant Number mean: 0.216517 max: 3.52516
deltaT = 0.000125
Time = 0.003875

smoothSolver:  Solving for Ux, Initial residual = 0.00137854, Final residual = 9.4131e-06, No Iterations 3
smoothSolver:  Solving for Uy, Initial residual = 0.00188027, Final residual = 6.8819e-06, No Iterations 3
smoothSolver:  Solving for Uz, Initial residual = 0.0462445, Final residual = 6.329e-06, No Iterations 4
GAMG:  Solving for p, Initial residual = 0.0182913, Final residual = 0.000178784, No Iterations 8
time step continuity errors : sum local = 5.77369e-08, global = -1.41836e-10, cumulative = 8.68124e-08
GAMG:  Solving for p, Initial residual = 0.00205282, Final residual = 9.96267e-08, No Iterations 512
time step continuity errors : sum local = 3.19856e-11, global = -2.3037e-16, cumulative = 8.68124e-08
ExecutionTime = 79.78 s  ClockTime = 80 s

Courant Number mean: 0.216502 max: 3.51671
deltaT = 0.000125
Time = 0.004

smoothSolver:  Solving for Ux, Initial residual = 0.00134769, Final residual = 9.06817e-06, No Iterations 3
smoothSolver:  Solving for Uy, Initial residual = 0.00182463, Final residual = 6.75527e-06, No Iterations 3
smoothSolver:  Solving for Uz, Initial residual = 0.0454391, Final residual = 6.15645e-06, No Iterations 4
GAMG:  Solving for p, Initial residual = 0.0173182, Final residual = 0.000165064, No Iterations 9
time step continuity errors : sum local = 5.27085e-08, global = -1.13686e-10, cumulative = 8.66987e-08
GAMG:  Solving for p, Initial residual = 0.00198527, Final residual = 9.96019e-08, No Iterations 558
time step continuity errors : sum local = 3.16377e-11, global = -7.6773e-16, cumulative = 8.66987e-08
ExecutionTime = 82.08 s  ClockTime = 82 s

Courant Number mean: 0.216488 max: 3.50831
deltaT = 0.000142857
Time = 0.00414286

smoothSolver:  Solving for Ux, Initial residual = 0.00150531, Final residual = 6.81421e-06, No Iterations 4
smoothSolver:  Solving for Uy, Initial residual = 0.00202666, Final residual = 9.37384e-06, No Iterations 3
smoothSolver:  Solving for Uz, Initial residual = 0.0506676, Final residual = 8.96529e-06, No Iterations 4
GAMG:  Solving for p, Initial residual = 0.0180477, Final residual = 0.000172959, No Iterations 8
time step continuity errors : sum local = 6.78897e-08, global = -3.06956e-10, cumulative = 8.63917e-08
GAMG:  Solving for p, Initial residual = 0.00224987, Final residual = 9.97157e-08, No Iterations 626
time step continuity errors : sum local = 3.89224e-11, global = 2.05248e-15, cumulative = 8.63917e-08
ExecutionTime = 84.58 s  ClockTime = 85 s

Courant Number mean: 0.247397 max: 3.99865
deltaT = 0.000142857
Time = 0.00428571

smoothSolver:  Solving for Ux, Initial residual = 0.00147222, Final residual = 6.43541e-06, No Iterations 4
smoothSolver:  Solving for Uy, Initial residual = 0.00197124, Final residual = 9.4194e-06, No Iterations 3
smoothSolver:  Solving for Uz, Initial residual = 0.0498176, Final residual = 9.71177e-06, No Iterations 4
GAMG:  Solving for p, Initial residual = 0.017631, Final residual = 0.000171389, No Iterations 11
time step continuity errors : sum local = 6.65514e-08, global = -1.34459e-10, cumulative = 8.62573e-08
GAMG:  Solving for p, Initial residual = 0.0021723, Final residual = 9.97288e-08, No Iterations 738
time step continuity errors : sum local = 3.85253e-11, global = -2.85237e-15, cumulative = 8.62573e-08
ExecutionTime = 87.54 s  ClockTime = 87 s

Courant Number mean: 0.247379 max: 3.98798
deltaT = 0.000142857
Time = 0.00442857

smoothSolver:  Solving for Ux, Initial residual = 0.00144179, Final residual = 6.19025e-06, No Iterations 4
smoothSolver:  Solving for Uy, Initial residual = 0.00191749, Final residual = 8.88128e-06, No Iterations 3
smoothSolver:  Solving for Uz, Initial residual = 0.0489988, Final residual = 9.49487e-06, No Iterations 4
GAMG:  Solving for p, Initial residual = 0.0165749, Final residual = 0.000163219, No Iterations 12
time step continuity errors : sum local = 6.27697e-08, global = -1.11082e-10, cumulative = 8.61462e-08
GAMG:  Solving for p, Initial residual = 0.0021144, Final residual = 9.97312e-08, No Iterations 837
time step continuity errors : sum local = 3.81794e-11, global = 2.93872e-15, cumulative = 8.61462e-08
ExecutionTime = 90.91 s  ClockTime = 91 s

Courant Number mean: 0.247362 max: 3.9775
deltaT = 0.000142857
Time = 0.00457143

smoothSolver:  Solving for Ux, Initial residual = 0.00141479, Final residual = 5.89945e-06, No Iterations 4
smoothSolver:  Solving for Uy, Initial residual = 0.00187095, Final residual = 8.67903e-06, No Iterations 3
smoothSolver:  Solving for Uz, Initial residual = 0.0481344, Final residual = 9.10105e-06, No Iterations 4
GAMG:  Solving for p, Initial residual = 0.015684, Final residual = 0.00015573, No Iterations 12
time step continuity errors : sum local = 5.937e-08, global = -8.71452e-11, cumulative = 8.6059e-08
GAMG:  Solving for p, Initial residual = 0.0019901, Final residual = 9.96699e-08, No Iterations 925
time step continuity errors : sum local = 3.78432e-11, global = -2.85679e-15, cumulative = 8.6059e-08
ExecutionTime = 94.74 s  ClockTime = 95 s

Courant Number mean: 0.247345 max: 3.96728
deltaT = 0.000142857
Time = 0.00471429

smoothSolver:  Solving for Ux, Initial residual = 0.00139033, Final residual = 5.66239e-06, No Iterations 4
smoothSolver:  Solving for Uy, Initial residual = 0.00182681, Final residual = 8.29789e-06, No Iterations 3
smoothSolver:  Solving for Uz, Initial residual = 0.0473438, Final residual = 8.7995e-06, No Iterations 4
GAMG:  Solving for p, Initial residual = 0.0148562, Final residual = 0.000144095, No Iterations 13
time step continuity errors : sum local = 5.45006e-08, global = -4.10473e-11, cumulative = 8.6018e-08
GAMG:  Solving for p, Initial residual = 0.00191852, Final residual = 9.99636e-08, No Iterations 990
time step continuity errors : sum local = 3.76692e-11, global = 2.81123e-15, cumulative = 8.6018e-08
ExecutionTime = 98.92 s  ClockTime = 99 s

Courant Number mean: 0.247328 max: 3.95732
deltaT = 0.000142857
Time = 0.00485714

smoothSolver:  Solving for Ux, Initial residual = 0.00136784, Final residual = 5.41725e-06, No Iterations 4
smoothSolver:  Solving for Uy, Initial residual = 0.00178711, Final residual = 8.05158e-06, No Iterations 3
smoothSolver:  Solving for Uz, Initial residual = 0.0465417, Final residual = 8.3106e-06, No Iterations 4
GAMG:  Solving for p, Initial residual = 0.0141134, Final residual = 0.000138421, No Iterations 12
time step continuity errors : sum local = 5.19745e-08, global = -3.81471e-11, cumulative = 8.59798e-08
GAMG:  Solving for p, Initial residual = 0.00182343, Final residual = 1.15657e-07, No Iterations 1000
time step continuity errors : sum local = 4.32819e-11, global = -3.26866e-15, cumulative = 8.59798e-08
ExecutionTime = 102.87 s  ClockTime = 103 s

Courant Number mean: 0.247312 max: 3.94764
deltaT = 0.000142857
Time = 0.005

smoothSolver:  Solving for Ux, Initial residual = 0.00134731, Final residual = 9.96396e-06, No Iterations 3
smoothSolver:  Solving for Uy, Initial residual = 0.00174978, Final residual = 7.74691e-06, No Iterations 3
smoothSolver:  Solving for Uz, Initial residual = 0.0456855, Final residual = 8.11099e-06, No Iterations 4
GAMG:  Solving for p, Initial residual = 0.0136524, Final residual = 0.000136303, No Iterations 11
time step continuity errors : sum local = 5.08277e-08, global = 5.94099e-11, cumulative = 8.60392e-08
GAMG:  Solving for p, Initial residual = 0.00187632, Final residual = 1.30317e-07, No Iterations 1000
time step continuity errors : sum local = 4.85049e-11, global = 3.7476e-15, cumulative = 8.60393e-08
ExecutionTime = 106.85 s  ClockTime = 107 s

Courant Number mean: 0.247297 max: 3.93834
deltaT = 0.000142857
Time = 0.00514286

smoothSolver:  Solving for Ux, Initial residual = 0.00132676, Final residual = 9.76786e-06, No Iterations 3
smoothSolver:  Solving for Uy, Initial residual = 0.00171148, Final residual = 7.3121e-06, No Iterations 3
smoothSolver:  Solving for Uz, Initial residual = 0.0448414, Final residual = 8.05903e-06, No Iterations 4
GAMG:  Solving for p, Initial residual = 0.0128027, Final residual = 0.000126747, No Iterations 13
time step continuity errors : sum local = 4.70013e-08, global = 2.61098e-11, cumulative = 8.60654e-08
GAMG:  Solving for p, Initial residual = 0.00169914, Final residual = 1.39443e-07, No Iterations 1000
time step continuity errors : sum local = 5.15844e-11, global = -4.06827e-15, cumulative = 8.60654e-08
ExecutionTime = 110.66 s  ClockTime = 111 s

Courant Number mean: 0.247282 max: 3.92932
deltaT = 0.000142857
Time = 0.00528571

smoothSolver:  Solving for Ux, Initial residual = 0.00130836, Final residual = 9.44414e-06, No Iterations 3
smoothSolver:  Solving for Uy, Initial residual = 0.0016794, Final residual = 7.18611e-06, No Iterations 3
smoothSolver:  Solving for Uz, Initial residual = 0.0440585, Final residual = 7.58319e-06, No Iterations 4
GAMG:  Solving for p, Initial residual = 0.0122813, Final residual = 0.000121211, No Iterations 12
time step continuity errors : sum local = 4.46834e-08, global = 4.92589e-11, cumulative = 8.61146e-08
GAMG:  Solving for p, Initial residual = 0.00165135, Final residual = 1.44801e-07, No Iterations 1000
time step continuity errors : sum local = 5.32617e-11, global = 4.28617e-15, cumulative = 8.61146e-08
ExecutionTime = 114.67 s  ClockTime = 115 s

Courant Number mean: 0.247267 max: 3.9206
deltaT = 0.000142857
Time = 0.00542857

smoothSolver:  Solving for Ux, Initial residual = 0.00129107, Final residual = 9.1739e-06, No Iterations 3
smoothSolver:  Solving for Uy, Initial residual = 0.00164961, Final residual = 6.91192e-06, No Iterations 3
smoothSolver:  Solving for Uz, Initial residual = 0.0433874, Final residual = 7.33993e-06, No Iterations 4
GAMG:  Solving for p, Initial residual = 0.0117456, Final residual = 0.000116571, No Iterations 12
time step continuity errors : sum local = 4.27371e-08, global = 5.34997e-11, cumulative = 8.61681e-08
GAMG:  Solving for p, Initial residual = 0.00158629, Final residual = 1.4624e-07, No Iterations 1000
time step continuity errors : sum local = 5.35063e-11, global = -4.34356e-15, cumulative = 8.61681e-08
ExecutionTime = 118.57 s  ClockTime = 119 s

Courant Number mean: 0.247252 max: 3.91214
deltaT = 0.000142857
Time = 0.00557143

smoothSolver:  Solving for Ux, Initial residual = 0.00127471, Final residual = 8.88381e-06, No Iterations 3
smoothSolver:  Solving for Uy, Initial residual = 0.00162187, Final residual = 6.73444e-06, No Iterations 3
smoothSolver:  Solving for Uz, Initial residual = 0.0428033, Final residual = 7.08263e-06, No Iterations 4
GAMG:  Solving for p, Initial residual = 0.011305, Final residual = 0.000112258, No Iterations 12
time step continuity errors : sum local = 4.09385e-08, global = 6.49343e-11, cumulative = 8.62331e-08
GAMG:  Solving for p, Initial residual = 0.00154399, Final residual = 1.44206e-07, No Iterations 1000
time step continuity errors : sum local = 5.24873e-11, global = 4.30808e-15, cumulative = 8.62331e-08
ExecutionTime = 122.3 s  ClockTime = 122 s

Courant Number mean: 0.247238 max: 3.90395
deltaT = 0.000142857
Time = 0.00571429

smoothSolver:  Solving for Ux, Initial residual = 0.00125974, Final residual = 8.61807e-06, No Iterations 3
smoothSolver:  Solving for Uy, Initial residual = 0.00159519, Final residual = 6.51484e-06, No Iterations 3
smoothSolver:  Solving for Uz, Initial residual = 0.0421751, Final residual = 6.8354e-06, No Iterations 4
GAMG:  Solving for p, Initial residual = 0.0108748, Final residual = 0.00010862, No Iterations 12
time step continuity errors : sum local = 3.94134e-08, global = 7.12795e-11, cumulative = 8.63043e-08
GAMG:  Solving for p, Initial residual = 0.00149565, Final residual = 1.39242e-07, No Iterations 1000
time step continuity errors : sum local = 5.04375e-11, global = -4.13673e-15, cumulative = 8.63043e-08
ExecutionTime = 125.97 s  ClockTime = 126 s

Courant Number mean: 0.247224 max: 3.89599
deltaT = 0.000142857
Time = 0.00585714

smoothSolver:  Solving for Ux, Initial residual = 0.00124554, Final residual = 8.35352e-06, No Iterations 3
smoothSolver:  Solving for Uy, Initial residual = 0.0015722, Final residual = 6.33268e-06, No Iterations 3
smoothSolver:  Solving for Uz, Initial residual = 0.0415492, Final residual = 6.58805e-06, No Iterations 4
GAMG:  Solving for p, Initial residual = 0.0104903, Final residual = 0.000102309, No Iterations 13
time step continuity errors : sum local = 3.69517e-08, global = 7.50898e-11, cumulative = 8.63794e-08
GAMG:  Solving for p, Initial residual = 0.00145821, Final residual = 1.30297e-07, No Iterations 1000
time step continuity errors : sum local = 4.69889e-11, global = 3.86803e-15, cumulative = 8.63794e-08
ExecutionTime = 129.76 s  ClockTime = 130 s

Courant Number mean: 0.24721 max: 3.88826
deltaT = 0.000142857
Time = 0.006

smoothSolver:  Solving for Ux, Initial residual = 0.00123169, Final residual = 8.1035e-06, No Iterations 3
smoothSolver:  Solving for Uy, Initial residual = 0.00155194, Final residual = 6.14036e-06, No Iterations 3
smoothSolver:  Solving for Uz, Initial residual = 0.0409076, Final residual = 6.20813e-06, No Iterations 4
GAMG:  Solving for p, Initial residual = 0.0101172, Final residual = 9.87729e-05, No Iterations 12
time step continuity errors : sum local = 3.55232e-08, global = 8.36576e-11, cumulative = 8.64631e-08
GAMG:  Solving for p, Initial residual = 0.00141101, Final residual = 1.20236e-07, No Iterations 1000
time step continuity errors : sum local = 4.3185e-11, global = -3.52361e-15, cumulative = 8.64631e-08
ExecutionTime = 133.59 s  ClockTime = 134 s

Courant Number mean: 0.247196 max: 3.88075
deltaT = 0.000142857
Time = 0.00614286

smoothSolver:  Solving for Ux, Initial residual = 0.00121875, Final residual = 7.86025e-06, No Iterations 3
smoothSolver:  Solving for Uy, Initial residual = 0.00153341, Final residual = 5.96611e-06, No Iterations 3
smoothSolver:  Solving for Uz, Initial residual = 0.0403026, Final residual = 6.00785e-06, No Iterations 4
GAMG:  Solving for p, Initial residual = 0.00975866, Final residual = 9.56979e-05, No Iterations 12
time step continuity errors : sum local = 3.42837e-08, global = 8.42688e-11, cumulative = 8.65473e-08
GAMG:  Solving for p, Initial residual = 0.00137401, Final residual = 1.08795e-07, No Iterations 1000
time step continuity errors : sum local = 3.89299e-11, global = 3.12362e-15, cumulative = 8.65474e-08
ExecutionTime = 137.41 s  ClockTime = 137 s

Courant Number mean: 0.247182 max: 3.87346
deltaT = 0.000142857
Time = 0.00628571

smoothSolver:  Solving for Ux, Initial residual = 0.00120656, Final residual = 7.62772e-06, No Iterations 3
smoothSolver:  Solving for Uy, Initial residual = 0.00151681, Final residual = 5.79356e-06, No Iterations 3
smoothSolver:  Solving for Uz, Initial residual = 0.0397419, Final residual = 5.81625e-06, No Iterations 4
GAMG:  Solving for p, Initial residual = 0.00940016, Final residual = 9.3035e-05, No Iterations 12
time step continuity errors : sum local = 3.32104e-08, global = 9.33682e-11, cumulative = 8.66407e-08
GAMG:  Solving for p, Initial residual = 0.00133745, Final residual = 9.98928e-08, No Iterations 993
time step continuity errors : sum local = 3.56208e-11, global = -2.76404e-15, cumulative = 8.66407e-08
ExecutionTime = 140.98 s  ClockTime = 141 s

Courant Number mean: 0.247168 max: 3.86636
deltaT = 0.000142857
Time = 0.00642857

smoothSolver:  Solving for Ux, Initial residual = 0.00119468, Final residual = 7.40297e-06, No Iterations 3
smoothSolver:  Solving for Uy, Initial residual = 0.00150124, Final residual = 5.63258e-06, No Iterations 3
smoothSolver:  Solving for Uz, Initial residual = 0.0392497, Final residual = 5.63424e-06, No Iterations 4
GAMG:  Solving for p, Initial residual = 0.0090662, Final residual = 9.06146e-05, No Iterations 12
time step continuity errors : sum local = 3.22386e-08, global = 9.17833e-11, cumulative = 8.67325e-08
GAMG:  Solving for p, Initial residual = 0.00130444, Final residual = 9.96767e-08, No Iterations 958
time step continuity errors : sum local = 3.54291e-11, global = 2.78058e-15, cumulative = 8.67325e-08
ExecutionTime = 144.56 s  ClockTime = 145 s

Courant Number mean: 0.247154 max: 3.85947
deltaT = 0.000142857
Time = 0.00657143

smoothSolver:  Solving for Ux, Initial residual = 0.00118341, Final residual = 7.18757e-06, No Iterations 3
smoothSolver:  Solving for Uy, Initial residual = 0.00148604, Final residual = 5.47639e-06, No Iterations 3
smoothSolver:  Solving for Uz, Initial residual = 0.0387777, Final residual = 5.45572e-06, No Iterations 4
GAMG:  Solving for p, Initial residual = 0.00875147, Final residual = 8.61664e-05, No Iterations 13
time step continuity errors : sum local = 3.05614e-08, global = 9.75755e-11, cumulative = 8.68301e-08
GAMG:  Solving for p, Initial residual = 0.00127543, Final residual = 9.97749e-08, No Iterations 917
time step continuity errors : sum local = 3.53589e-11, global = -2.82982e-15, cumulative = 8.68301e-08
ExecutionTime = 148.28 s  ClockTime = 148 s

Courant Number mean: 0.247141 max: 3.85276
deltaT = 0.000142857
Time = 0.00671429

smoothSolver:  Solving for Ux, Initial residual = 0.00117289, Final residual = 6.97971e-06, No Iterations 3
smoothSolver:  Solving for Uy, Initial residual = 0.00147133, Final residual = 5.32897e-06, No Iterations 3
smoothSolver:  Solving for Uz, Initial residual = 0.0383289, Final residual = 5.1751e-06, No Iterations 4
GAMG:  Solving for p, Initial residual = 0.00845398, Final residual = 8.36338e-05, No Iterations 12
time step continuity errors : sum local = 2.95775e-08, global = 9.66299e-11, cumulative = 8.69267e-08
GAMG:  Solving for p, Initial residual = 0.0012421, Final residual = 9.9706e-08, No Iterations 881
time step continuity errors : sum local = 3.52351e-11, global = 2.79448e-15, cumulative = 8.69267e-08
ExecutionTime = 151.9 s  ClockTime = 152 s

Courant Number mean: 0.247127 max: 3.84625
deltaT = 0.000142857
Time = 0.00685714

smoothSolver:  Solving for Ux, Initial residual = 0.0011631, Final residual = 6.78022e-06, No Iterations 3
smoothSolver:  Solving for Uy, Initial residual = 0.00145716, Final residual = 5.1871e-06, No Iterations 3
smoothSolver:  Solving for Uz, Initial residual = 0.0379221, Final residual = 5.02088e-06, No Iterations 4
GAMG:  Solving for p, Initial residual = 0.00817139, Final residual = 7.96568e-05, No Iterations 13
time step continuity errors : sum local = 2.8096e-08, global = 1.01634e-10, cumulative = 8.70283e-08
GAMG:  Solving for p, Initial residual = 0.00121647, Final residual = 9.98533e-08, No Iterations 857
time step continuity errors : sum local = 3.51965e-11, global = -2.43788e-15, cumulative = 8.70283e-08
ExecutionTime = 155.18 s  ClockTime = 155 s

Courant Number mean: 0.247114 max: 3.83991
deltaT = 0.000142857
Time = 0.007

smoothSolver:  Solving for Ux, Initial residual = 0.00115366, Final residual = 6.58821e-06, No Iterations 3
smoothSolver:  Solving for Uy, Initial residual = 0.0014439, Final residual = 5.05269e-06, No Iterations 3
smoothSolver:  Solving for Uz, Initial residual = 0.0375024, Final residual = 4.78276e-06, No Iterations 4
GAMG:  Solving for p, Initial residual = 0.00790614, Final residual = 7.76083e-05, No Iterations 12
time step continuity errors : sum local = 2.73054e-08, global = 1.01014e-10, cumulative = 8.71294e-08
GAMG:  Solving for p, Initial residual = 0.00118686, Final residual = 9.96453e-08, No Iterations 855
time step continuity errors : sum local = 3.50382e-11, global = 1.7227e-15, cumulative = 8.71294e-08
ExecutionTime = 158.87 s  ClockTime = 159 s

Courant Number mean: 0.2471 max: 3.83377
deltaT = 0.000142857
Time = 0.00714286

smoothSolver:  Solving for Ux, Initial residual = 0.00114473, Final residual = 6.40412e-06, No Iterations 3
smoothSolver:  Solving for Uy, Initial residual = 0.00143147, Final residual = 4.92417e-06, No Iterations 3
smoothSolver:  Solving for Uz, Initial residual = 0.0370587, Final residual = 4.637e-06, No Iterations 4
GAMG:  Solving for p, Initial residual = 0.0076661, Final residual = 7.6184e-05, No Iterations 12
time step continuity errors : sum local = 2.67435e-08, global = 1.09095e-10, cumulative = 8.72385e-08
GAMG:  Solving for p, Initial residual = 0.00116232, Final residual = 9.97181e-08, No Iterations 870
time step continuity errors : sum local = 3.49866e-11, global = -7.97513e-16, cumulative = 8.72385e-08
ExecutionTime = 162.2 s  ClockTime = 162 s

Courant Number mean: 0.247087 max: 3.82779
deltaT = 0.000142857
Time = 0.00728571

smoothSolver:  Solving for Ux, Initial residual = 0.00113652, Final residual = 6.22685e-06, No Iterations 3
smoothSolver:  Solving for Uy, Initial residual = 0.00141981, Final residual = 4.80169e-06, No Iterations 3
smoothSolver:  Solving for Uz, Initial residual = 0.0365625, Final residual = 4.52757e-06, No Iterations 4
GAMG:  Solving for p, Initial residual = 0.00743564, Final residual = 7.28963e-05, No Iterations 13
time step continuity errors : sum local = 2.55363e-08, global = 1.02209e-10, cumulative = 8.73407e-08
GAMG:  Solving for p, Initial residual = 0.00114118, Final residual = 9.97096e-08, No Iterations 892
time step continuity errors : sum local = 3.49143e-11, global = -3.8526e-17, cumulative = 8.73407e-08
ExecutionTime = 165.54 s  ClockTime = 166 s

Courant Number mean: 0.247074 max: 3.82201
deltaT = 0.000142857
Time = 0.00742857

smoothSolver:  Solving for Ux, Initial residual = 0.00112855, Final residual = 6.05644e-06, No Iterations 3
smoothSolver:  Solving for Uy, Initial residual = 0.00140917, Final residual = 4.68434e-06, No Iterations 3
smoothSolver:  Solving for Uz, Initial residual = 0.0360384, Final residual = 4.30434e-06, No Iterations 4
GAMG:  Solving for p, Initial residual = 0.00721194, Final residual = 7.13732e-05, No Iterations 12
time step continuity errors : sum local = 2.49558e-08, global = 1.11408e-10, cumulative = 8.74521e-08
GAMG:  Solving for p, Initial residual = 0.00111562, Final residual = 9.97875e-08, No Iterations 917
time step continuity errors : sum local = 3.48782e-11, global = 7.067e-16, cumulative = 8.74521e-08
ExecutionTime = 168.86 s  ClockTime = 169 s

Courant Number mean: 0.247061 max: 3.81639
deltaT = 0.000142857
Time = 0.00757143

smoothSolver:  Solving for Ux, Initial residual = 0.00112088, Final residual = 5.89293e-06, No Iterations 3
smoothSolver:  Solving for Uy, Initial residual = 0.00139938, Final residual = 4.5725e-06, No Iterations 3
smoothSolver:  Solving for Uz, Initial residual = 0.0355637, Final residual = 4.21619e-06, No Iterations 4
GAMG:  Solving for p, Initial residual = 0.00700291, Final residual = 7.00107e-05, No Iterations 12
time step continuity errors : sum local = 2.44374e-08, global = 1.10417e-10, cumulative = 8.75625e-08
GAMG:  Solving for p, Initial residual = 0.00109482, Final residual = 9.98904e-08, No Iterations 942
time step continuity errors : sum local = 3.48552e-11, global = -1.2715e-15, cumulative = 8.75625e-08
ExecutionTime = 172.62 s  ClockTime = 173 s

Courant Number mean: 0.247048 max: 3.81094
deltaT = 0.000142857
Time = 0.00771429

smoothSolver:  Solving for Ux, Initial residual = 0.00111368, Final residual = 5.73586e-06, No Iterations 3
smoothSolver:  Solving for Uy, Initial residual = 0.00138971, Final residual = 4.46463e-06, No Iterations 3
smoothSolver:  Solving for Uz, Initial residual = 0.0351204, Final residual = 4.10916e-06, No Iterations 4
GAMG:  Solving for p, Initial residual = 0.0068073, Final residual = 6.70453e-05, No Iterations 13
time step continuity errors : sum local = 2.3365e-08, global = 1.10036e-10, cumulative = 8.76725e-08
GAMG:  Solving for p, Initial residual = 0.00107674, Final residual = 9.97777e-08, No Iterations 964
time step continuity errors : sum local = 3.47623e-11, global = 1.68317e-15, cumulative = 8.76725e-08
ExecutionTime = 176.39 s  ClockTime = 177 s

Courant Number mean: 0.247035 max: 3.80566
deltaT = 0.000142857
Time = 0.00785714

smoothSolver:  Solving for Ux, Initial residual = 0.00110687, Final residual = 5.58416e-06, No Iterations 3
smoothSolver:  Solving for Uy, Initial residual = 0.00138039, Final residual = 4.36172e-06, No Iterations 3
smoothSolver:  Solving for Uz, Initial residual = 0.034672, Final residual = 3.95106e-06, No Iterations 4
GAMG:  Solving for p, Initial residual = 0.00661894, Final residual = 6.5704e-05, No Iterations 12
time step continuity errors : sum local = 2.28632e-08, global = 1.13046e-10, cumulative = 8.77856e-08
GAMG:  Solving for p, Initial residual = 0.00105475, Final residual = 9.99831e-08, No Iterations 985
time step continuity errors : sum local = 3.4782e-11, global = -1.99299e-15, cumulative = 8.77856e-08
ExecutionTime = 180.26 s  ClockTime = 181 s

Courant Number mean: 0.247022 max: 3.80054
deltaT = 0.000142857
Time = 0.008

smoothSolver:  Solving for Ux, Initial residual = 0.00110051, Final residual = 5.43806e-06, No Iterations 3
smoothSolver:  Solving for Uy, Initial residual = 0.00137274, Final residual = 4.26273e-06, No Iterations 3
smoothSolver:  Solving for Uz, Initial residual = 0.034261, Final residual = 3.85803e-06, No Iterations 4
GAMG:  Solving for p, Initial residual = 0.00644566, Final residual = 6.32232e-05, No Iterations 13
time step continuity errors : sum local = 2.1969e-08, global = 1.1069e-10, cumulative = 8.78963e-08
GAMG:  Solving for p, Initial residual = 0.00103791, Final residual = 1.00841e-07, No Iterations 1000
time step continuity errors : sum local = 3.50317e-11, global = 2.22799e-15, cumulative = 8.78963e-08
ExecutionTime = 184.04 s  ClockTime = 185 s

Courant Number mean: 0.247009 max: 3.79557
deltaT = 0.000142857
Time = 0.00814286

smoothSolver:  Solving for Ux, Initial residual = 0.00109447, Final residual = 5.29704e-06, No Iterations 3
smoothSolver:  Solving for Uy, Initial residual = 0.00136553, Final residual = 4.16839e-06, No Iterations 3
smoothSolver:  Solving for Uz, Initial residual = 0.0339422, Final residual = 9.73446e-06, No Iterations 3
GAMG:  Solving for p, Initial residual = 0.00627663, Final residual = 6.22525e-05, No Iterations 12
time step continuity errors : sum local = 2.16026e-08, global = 1.14906e-10, cumulative = 8.80112e-08
GAMG:  Solving for p, Initial residual = 0.00101742, Final residual = 1.0702e-07, No Iterations 1000
time step continuity errors : sum local = 3.71291e-11, global = -2.49761e-15, cumulative = 8.80112e-08
ExecutionTime = 187.96 s  ClockTime = 189 s

Courant Number mean: 0.246996 max: 3.79076
deltaT = 0.000142857
Time = 0.00828571

smoothSolver:  Solving for Ux, Initial residual = 0.00108884, Final residual = 5.16125e-06, No Iterations 3
smoothSolver:  Solving for Uy, Initial residual = 0.00135831, Final residual = 4.07756e-06, No Iterations 3
smoothSolver:  Solving for Uz, Initial residual = 0.0336389, Final residual = 9.52415e-06, No Iterations 3
GAMG:  Solving for p, Initial residual = 0.00611727, Final residual = 6.00611e-05, No Iterations 13
time step continuity errors : sum local = 2.08167e-08, global = 1.1056e-10, cumulative = 8.81217e-08
GAMG:  Solving for p, Initial residual = 0.00100235, Final residual = 1.11068e-07, No Iterations 1000
time step continuity errors : sum local = 3.8488e-11, global = 2.6997e-15, cumulative = 8.81217e-08
ExecutionTime = 191.67 s  ClockTime = 192 s

Courant Number mean: 0.246983 max: 3.78609
deltaT = 0.000142857
Time = 0.00842857

smoothSolver:  Solving for Ux, Initial residual = 0.00108348, Final residual = 5.03021e-06, No Iterations 3
smoothSolver:  Solving for Uy, Initial residual = 0.00135185, Final residual = 3.99131e-06, No Iterations 3
smoothSolver:  Solving for Uz, Initial residual = 0.0332837, Final residual = 9.24995e-06, No Iterations 3
GAMG:  Solving for p, Initial residual = 0.00596252, Final residual = 5.93442e-05, No Iterations 12
time step continuity errors : sum local = 2.05451e-08, global = 1.15836e-10, cumulative = 8.82376e-08
GAMG:  Solving for p, Initial residual = 0.000983879, Final residual = 1.14983e-07, No Iterations 1000
time step continuity errors : sum local = 3.98011e-11, global = -2.88935e-15, cumulative = 8.82376e-08
ExecutionTime = 195.3 s  ClockTime = 196 s

Courant Number mean: 0.246971 max: 3.78157
deltaT = 0.000142857
Time = 0.00857143

smoothSolver:  Solving for Ux, Initial residual = 0.00107834, Final residual = 4.904e-06, No Iterations 3
smoothSolver:  Solving for Uy, Initial residual = 0.00134581, Final residual = 3.90863e-06, No Iterations 3
smoothSolver:  Solving for Uz, Initial residual = 0.0328861, Final residual = 9.05174e-06, No Iterations 3
GAMG:  Solving for p, Initial residual = 0.00581841, Final residual = 5.73623e-05, No Iterations 13
time step continuity errors : sum local = 1.98385e-08, global = 1.09647e-10, cumulative = 8.83472e-08
GAMG:  Solving for p, Initial residual = 0.000970361, Final residual = 1.16986e-07, No Iterations 1000
time step continuity errors : sum local = 4.04537e-11, global = 3.02075e-15, cumulative = 8.83472e-08
ExecutionTime = 198.91 s  ClockTime = 200 s

Courant Number mean: 0.246958 max: 3.77717
deltaT = 0.000142857
Time = 0.00871429

smoothSolver:  Solving for Ux, Initial residual = 0.00107351, Final residual = 4.78205e-06, No Iterations 3
smoothSolver:  Solving for Uy, Initial residual = 0.00134053, Final residual = 3.82944e-06, No Iterations 3
smoothSolver:  Solving for Uz, Initial residual = 0.0325186, Final residual = 8.78777e-06, No Iterations 3
GAMG:  Solving for p, Initial residual = 0.00567823, Final residual = 5.67145e-05, No Iterations 12
time step continuity errors : sum local = 1.95954e-08, global = 1.15799e-10, cumulative = 8.8463e-08
GAMG:  Solving for p, Initial residual = 0.00095352, Final residual = 1.1897e-07, No Iterations 1000
time step continuity errors : sum local = 4.11001e-11, global = -3.14375e-15, cumulative = 8.8463e-08
ExecutionTime = 202.53 s  ClockTime = 203 s

Courant Number mean: 0.246945 max: 3.77292
deltaT = 0.000142857
Time = 0.00885714

smoothSolver:  Solving for Ux, Initial residual = 0.00106883, Final residual = 4.66457e-06, No Iterations 3
smoothSolver:  Solving for Uy, Initial residual = 0.00133569, Final residual = 3.75346e-06, No Iterations 3
smoothSolver:  Solving for Uz, Initial residual = 0.0321676, Final residual = 8.5946e-06, No Iterations 3
GAMG:  Solving for p, Initial residual = 0.00554815, Final residual = 5.46657e-05, No Iterations 13
time step continuity errors : sum local = 1.88704e-08, global = 1.07964e-10, cumulative = 8.8571e-08
GAMG:  Solving for p, Initial residual = 0.000941629, Final residual = 1.19063e-07, No Iterations 1000
time step continuity errors : sum local = 4.10959e-11, global = 3.20806e-15, cumulative = 8.8571e-08
ExecutionTime = 206.16 s  ClockTime = 207 s

Courant Number mean: 0.246932 max: 3.76878
deltaT = 0.000142857
Time = 0.009

smoothSolver:  Solving for Ux, Initial residual = 0.00106437, Final residual = 4.55115e-06, No Iterations 3
smoothSolver:  Solving for Uy, Initial residual = 0.00133069, Final residual = 3.68098e-06, No Iterations 3
smoothSolver:  Solving for Uz, Initial residual = 0.0318375, Final residual = 8.3455e-06, No Iterations 3
GAMG:  Solving for p, Initial residual = 0.00542593, Final residual = 5.38365e-05, No Iterations 12
time step continuity errors : sum local = 1.85681e-08, global = 1.14813e-10, cumulative = 8.86858e-08
GAMG:  Solving for p, Initial residual = 0.000926211, Final residual = 1.19076e-07, No Iterations 1000
time step continuity errors : sum local = 4.10648e-11, global = -3.26734e-15, cumulative = 8.86858e-08
ExecutionTime = 209.82 s  ClockTime = 211 s

Courant Number mean: 0.246919 max: 3.76476
deltaT = 0.000142857
Time = 0.00914286

smoothSolver:  Solving for Ux, Initial residual = 0.00106029, Final residual = 4.44184e-06, No Iterations 3
smoothSolver:  Solving for Uy, Initial residual = 0.00132573, Final residual = 3.6112e-06, No Iterations 3
smoothSolver:  Solving for Uz, Initial residual = 0.0315047, Final residual = 8.16225e-06, No Iterations 3
GAMG:  Solving for p, Initial residual = 0.00531026, Final residual = 5.30316e-05, No Iterations 12
time step continuity errors : sum local = 1.82756e-08, global = 1.10762e-10, cumulative = 8.87965e-08
[...]
GAMG:  Solving for p, Initial residual = 0.000957294, Final residual = 9.99272e-08, No Iterations 768
time step continuity errors : sum local = 4.14446e-11, global = 2.25611e-15, cumulative = 1.0732e-07
ExecutionTime = 3966 s  ClockTime = 3979 s

Courant Number mean: 0.273943 max: 3.26544
deltaT = 0.000142857
Time = 0.296857

smoothSolver:  Solving for Ux, Initial residual = 0.000899841, Final residual = 1.3751e-06, No Iterations 2
smoothSolver:  Solving for Uy, Initial residual = 0.00199638, Final residual = 2.55689e-06, No Iterations 2
smoothSolver:  Solving for Uz, Initial residual = 0.00282304, Final residual = 2.04672e-06, No Iterations 2
GAMG:  Solving for p, Initial residual = 0.00225833, Final residual = 2.18717e-05, No Iterations 8
time step continuity errors : sum local = 9.07179e-09, global = -7.89879e-11, cumulative = 1.07241e-07
GAMG:  Solving for p, Initial residual = 0.000960412, Final residual = 9.97408e-08, No Iterations 764
time step continuity errors : sum local = 4.13376e-11, global = -1.96198e-15, cumulative = 1.07241e-07
ExecutionTime = 3968.13 s  ClockTime = 3981 s

Courant Number mean: 0.273943 max: 3.26411
deltaT = 0.000142857
Time = 0.297

smoothSolver:  Solving for Ux, Initial residual = 0.000901679, Final residual = 1.38034e-06, No Iterations 2
smoothSolver:  Solving for Uy, Initial residual = 0.00199796, Final residual = 2.56483e-06, No Iterations 2
smoothSolver:  Solving for Uz, Initial residual = 0.00282155, Final residual = 2.00535e-06, No Iterations 2
GAMG:  Solving for p, Initial residual = 0.00226661, Final residual = 2.21277e-05, No Iterations 8
time step continuity errors : sum local = 9.17138e-09, global = -7.93006e-11, cumulative = 1.07162e-07
GAMG:  Solving for p, Initial residual = 0.000963436, Final residual = 9.9876e-08, No Iterations 758
time step continuity errors : sum local = 4.1364e-11, global = 1.46445e-15, cumulative = 1.07162e-07
ExecutionTime = 3970.27 s  ClockTime = 3983 s

Courant Number mean: 0.273943 max: 3.26271
deltaT = 0.000142857
Time = 0.297143

smoothSolver:  Solving for Ux, Initial residual = 0.000903505, Final residual = 1.38553e-06, No Iterations 2
smoothSolver:  Solving for Uy, Initial residual = 0.00199953, Final residual = 2.57276e-06, No Iterations 2
smoothSolver:  Solving for Uz, Initial residual = 0.00283198, Final residual = 2.10305e-06, No Iterations 2
GAMG:  Solving for p, Initial residual = 0.00227423, Final residual = 2.24971e-05, No Iterations 8
time step continuity errors : sum local = 9.31784e-09, global = -8.16215e-11, cumulative = 1.0708e-07
GAMG:  Solving for p, Initial residual = 0.000966542, Final residual = 9.97064e-08, No Iterations 750
time step continuity errors : sum local = 4.12647e-11, global = -1.12189e-15, cumulative = 1.0708e-07
ExecutionTime = 3972.35 s  ClockTime = 3985 s

Courant Number mean: 0.273943 max: 3.26137
deltaT = 0.000142857
Time = 0.297286

smoothSolver:  Solving for Ux, Initial residual = 0.00090532, Final residual = 1.39074e-06, No Iterations 2
smoothSolver:  Solving for Uy, Initial residual = 0.00200111, Final residual = 2.58057e-06, No Iterations 2
smoothSolver:  Solving for Uz, Initial residual = 0.00283368, Final residual = 2.05522e-06, No Iterations 2
GAMG:  Solving for p, Initial residual = 0.00228091, Final residual = 2.18502e-05, No Iterations 9
time step continuity errors : sum local = 9.0436e-09, global = -7.23273e-11, cumulative = 1.07008e-07
GAMG:  Solving for p, Initial residual = 0.000970509, Final residual = 9.97907e-08, No Iterations 740
time step continuity errors : sum local = 4.12706e-11, global = 6.02681e-16, cumulative = 1.07008e-07
ExecutionTime = 3974.48 s  ClockTime = 3987 s

Courant Number mean: 0.273943 max: 3.25997
deltaT = 0.000142857
Time = 0.297429

smoothSolver:  Solving for Ux, Initial residual = 0.000907154, Final residual = 1.39586e-06, No Iterations 2
smoothSolver:  Solving for Uy, Initial residual = 0.00200262, Final residual = 2.58838e-06, No Iterations 2
smoothSolver:  Solving for Uz, Initial residual = 0.00284868, Final residual = 2.11842e-06, No Iterations 2
GAMG:  Solving for p, Initial residual = 0.0022867, Final residual = 2.24079e-05, No Iterations 8
time step continuity errors : sum local = 9.26793e-09, global = -8.11774e-11, cumulative = 1.06927e-07
GAMG:  Solving for p, Initial residual = 0.000972568, Final residual = 9.99391e-08, No Iterations 727
time step continuity errors : sum local = 4.13033e-11, global = -2.74561e-16, cumulative = 1.06927e-07
ExecutionTime = 3976.51 s  ClockTime = 3989 s

Courant Number mean: 0.273942 max: 3.25862
deltaT = 0.000142857
Time = 0.297571

smoothSolver:  Solving for Ux, Initial residual = 0.000908964, Final residual = 1.40105e-06, No Iterations 2
smoothSolver:  Solving for Uy, Initial residual = 0.00200423, Final residual = 2.5962e-06, No Iterations 2
smoothSolver:  Solving for Uz, Initial residual = 0.00285469, Final residual = 2.05984e-06, No Iterations 2
GAMG:  Solving for p, Initial residual = 0.0022926, Final residual = 2.27154e-05, No Iterations 8
time step continuity errors : sum local = 9.38855e-09, global = -8.61625e-11, cumulative = 1.06841e-07
GAMG:  Solving for p, Initial residual = 0.000975266, Final residual = 9.99317e-08, No Iterations 719
time step continuity errors : sum local = 4.12718e-11, global = -3.14492e-16, cumulative = 1.06841e-07
ExecutionTime = 3978.58 s  ClockTime = 3992 s

Courant Number mean: 0.273942 max: 3.25721
deltaT = 0.000142857
Time = 0.297714

smoothSolver:  Solving for Ux, Initial residual = 0.000910768, Final residual = 1.40614e-06, No Iterations 2
smoothSolver:  Solving for Uy, Initial residual = 0.00200588, Final residual = 2.60397e-06, No Iterations 2
smoothSolver:  Solving for Uz, Initial residual = 0.00287051, Final residual = 2.1434e-06, No Iterations 2
GAMG:  Solving for p, Initial residual = 0.00229784, Final residual = 2.20758e-05, No Iterations 9
time step continuity errors : sum local = 9.11785e-09, global = -7.82085e-11, cumulative = 1.06762e-07
GAMG:  Solving for p, Initial residual = 0.000979213, Final residual = 9.99807e-08, No Iterations 705
time step continuity errors : sum local = 4.12631e-11, global = 6.62564e-16, cumulative = 1.06762e-07
ExecutionTime = 3980.62 s  ClockTime = 3994 s

Courant Number mean: 0.273941 max: 3.25585
deltaT = 0.000142857
Time = 0.297857

smoothSolver:  Solving for Ux, Initial residual = 0.00091253, Final residual = 1.41124e-06, No Iterations 2
smoothSolver:  Solving for Uy, Initial residual = 0.00200743, Final residual = 2.61165e-06, No Iterations 2
smoothSolver:  Solving for Uz, Initial residual = 0.00287446, Final residual = 2.05433e-06, No Iterations 2
GAMG:  Solving for p, Initial residual = 0.00230261, Final residual = 2.25561e-05, No Iterations 8
time step continuity errors : sum local = 9.30978e-09, global = -8.51308e-11, cumulative = 1.06677e-07
GAMG:  Solving for p, Initial residual = 0.000981088, Final residual = 9.98829e-08, No Iterations 701
time step continuity errors : sum local = 4.11944e-11, global = -1.18184e-15, cumulative = 1.06677e-07
ExecutionTime = 3982.61 s  ClockTime = 3996 s

Courant Number mean: 0.273941 max: 3.25444
deltaT = 0.000142857
Time = 0.298

smoothSolver:  Solving for Ux, Initial residual = 0.000914227, Final residual = 1.41631e-06, No Iterations 2
smoothSolver:  Solving for Uy, Initial residual = 0.00200906, Final residual = 2.61938e-06, No Iterations 2
smoothSolver:  Solving for Uz, Initial residual = 0.00288711, Final residual = 2.1195e-06, No Iterations 2
GAMG:  Solving for p, Initial residual = 0.00230812, Final residual = 2.27625e-05, No Iterations 8
time step continuity errors : sum local = 9.38847e-09, global = -8.75794e-11, cumulative = 1.0659e-07
GAMG:  Solving for p, Initial residual = 0.000983741, Final residual = 9.97624e-08, No Iterations 691
time step continuity errors : sum local = 4.11166e-11, global = 1.51968e-15, cumulative = 1.0659e-07
ExecutionTime = 3984.65 s  ClockTime = 3998 s

Courant Number mean: 0.27394 max: 3.25307
deltaT = 0.000142857
Time = 0.298143

smoothSolver:  Solving for Ux, Initial residual = 0.000916002, Final residual = 1.42144e-06, No Iterations 2
smoothSolver:  Solving for Uy, Initial residual = 0.00201068, Final residual = 2.627e-06, No Iterations 2
smoothSolver:  Solving for Uz, Initial residual = 0.00288886, Final residual = 2.06417e-06, No Iterations 2
GAMG:  Solving for p, Initial residual = 0.0023141, Final residual = 2.29552e-05, No Iterations 8
time step continuity errors : sum local = 9.4615e-09, global = -8.72474e-11, cumulative = 1.06503e-07
GAMG:  Solving for p, Initial residual = 0.000986414, Final residual = 9.97053e-08, No Iterations 693
time step continuity errors : sum local = 4.10651e-11, global = -2.04369e-15, cumulative = 1.06503e-07
ExecutionTime = 3986.68 s  ClockTime = 4000 s

Courant Number mean: 0.27394 max: 3.25166
deltaT = 0.000142857
Time = 0.298286

smoothSolver:  Solving for Ux, Initial residual = 0.000917906, Final residual = 1.42648e-06, No Iterations 2
smoothSolver:  Solving for Uy, Initial residual = 0.0020122, Final residual = 2.63455e-06, No Iterations 2
smoothSolver:  Solving for Uz, Initial residual = 0.00289819, Final residual = 2.1135e-06, No Iterations 2
GAMG:  Solving for p, Initial residual = 0.00232159, Final residual = 2.30599e-05, No Iterations 8
time step continuity errors : sum local = 9.49805e-09, global = -8.89201e-11, cumulative = 1.06414e-07
GAMG:  Solving for p, Initial residual = 0.000989165, Final residual = 9.99626e-08, No Iterations 685
time step continuity errors : sum local = 4.11422e-11, global = 2.33199e-15, cumulative = 1.06414e-07
ExecutionTime = 3988.61 s  ClockTime = 4002 s

Courant Number mean: 0.27394 max: 3.25028
deltaT = 0.000142857
Time = 0.298429

smoothSolver:  Solving for Ux, Initial residual = 0.000919847, Final residual = 1.43162e-06, No Iterations 2
smoothSolver:  Solving for Uy, Initial residual = 0.00201363, Final residual = 2.64204e-06, No Iterations 2
smoothSolver:  Solving for Uz, Initial residual = 0.00289802, Final residual = 2.0649e-06, No Iterations 2
GAMG:  Solving for p, Initial residual = 0.00232901, Final residual = 2.31174e-05, No Iterations 8
time step continuity errors : sum local = 9.51514e-09, global = -8.78977e-11, cumulative = 1.06326e-07
GAMG:  Solving for p, Initial residual = 0.000991705, Final residual = 9.99155e-08, No Iterations 689
time step continuity errors : sum local = 4.10948e-11, global = -2.76391e-15, cumulative = 1.06326e-07
ExecutionTime = 3990.58 s  ClockTime = 4004 s

Courant Number mean: 0.273939 max: 3.24887
deltaT = 0.000142857
Time = 0.298571

smoothSolver:  Solving for Ux, Initial residual = 0.000921837, Final residual = 1.43665e-06, No Iterations 2
smoothSolver:  Solving for Uy, Initial residual = 0.00201498, Final residual = 2.6494e-06, No Iterations 2
smoothSolver:  Solving for Uz, Initial residual = 0.00290369, Final residual = 2.09516e-06, No Iterations 2
GAMG:  Solving for p, Initial residual = 0.00233632, Final residual = 2.30783e-05, No Iterations 8
time step continuity errors : sum local = 9.49263e-09, global = -8.9024e-11, cumulative = 1.06237e-07
GAMG:  Solving for p, Initial residual = 0.00099429, Final residual = 9.99614e-08, No Iterations 681
time step continuity errors : sum local = 4.10861e-11, global = 2.99153e-15, cumulative = 1.06237e-07
ExecutionTime = 3992.49 s  ClockTime = 4005 s

Courant Number mean: 0.273938 max: 3.24747
deltaT = 0.000142857
Time = 0.298714

smoothSolver:  Solving for Ux, Initial residual = 0.00092385, Final residual = 1.44173e-06, No Iterations 2
smoothSolver:  Solving for Uy, Initial residual = 0.00201636, Final residual = 2.65672e-06, No Iterations 2
smoothSolver:  Solving for Uz, Initial residual = 0.00290369, Final residual = 2.05404e-06, No Iterations 2
GAMG:  Solving for p, Initial residual = 0.00234336, Final residual = 2.29744e-05, No Iterations 8
time step continuity errors : sum local = 9.44363e-09, global = -8.73084e-11, cumulative = 1.06149e-07
GAMG:  Solving for p, Initial residual = 0.000996763, Final residual = 9.97473e-08, No Iterations 685
time step continuity errors : sum local = 4.09711e-11, global = -3.3369e-15, cumulative = 1.06149e-07
ExecutionTime = 3994.43 s  ClockTime = 4007 s

Courant Number mean: 0.273937 max: 3.24606
deltaT = 0.000142857
Time = 0.298857

smoothSolver:  Solving for Ux, Initial residual = 0.00092587, Final residual = 1.44668e-06, No Iterations 2
smoothSolver:  Solving for Uy, Initial residual = 0.00201769, Final residual = 2.66397e-06, No Iterations 2
smoothSolver:  Solving for Uz, Initial residual = 0.0029121, Final residual = 2.06309e-06, No Iterations 2
GAMG:  Solving for p, Initial residual = 0.00235072, Final residual = 2.27348e-05, No Iterations 8
time step continuity errors : sum local = 9.3389e-09, global = -8.75581e-11, cumulative = 1.06062e-07
GAMG:  Solving for p, Initial residual = 0.000999302, Final residual = 9.97967e-08, No Iterations 675
time step continuity errors : sum local = 4.0964e-11, global = 3.49984e-15, cumulative = 1.06062e-07
ExecutionTime = 3996.32 s  ClockTime = 4009 s

Courant Number mean: 0.273936 max: 3.24466
deltaT = 0.000142857
Time = 0.299

smoothSolver:  Solving for Ux, Initial residual = 0.000927866, Final residual = 1.45167e-06, No Iterations 2
smoothSolver:  Solving for Uy, Initial residual = 0.00201908, Final residual = 2.67123e-06, No Iterations 2
smoothSolver:  Solving for Uz, Initial residual = 0.00291716, Final residual = 2.02906e-06, No Iterations 2
GAMG:  Solving for p, Initial residual = 0.00235711, Final residual = 2.24325e-05, No Iterations 8
time step continuity errors : sum local = 9.20858e-09, global = -8.53252e-11, cumulative = 1.05976e-07
GAMG:  Solving for p, Initial residual = 0.0010016, Final residual = 9.99968e-08, No Iterations 676
time step continuity errors : sum local = 4.10188e-11, global = -3.76837e-15, cumulative = 1.05976e-07
ExecutionTime = 3998.25 s  ClockTime = 4011 s

Courant Number mean: 0.273935 max: 3.24324
deltaT = 0.000142857
Time = 0.299143

smoothSolver:  Solving for Ux, Initial residual = 0.000929837, Final residual = 1.45653e-06, No Iterations 2
smoothSolver:  Solving for Uy, Initial residual = 0.00202059, Final residual = 2.67836e-06, No Iterations 2
smoothSolver:  Solving for Uz, Initial residual = 0.00292853, Final residual = 2.01533e-06, No Iterations 2
GAMG:  Solving for p, Initial residual = 0.00236301, Final residual = 2.32777e-05, No Iterations 7
time step continuity errors : sum local = 9.54911e-09, global = -9.89841e-11, cumulative = 1.05877e-07
GAMG:  Solving for p, Initial residual = 0.00100279, Final residual = 9.98319e-08, No Iterations 668
time step continuity errors : sum local = 4.09239e-11, global = 3.88146e-15, cumulative = 1.05877e-07
ExecutionTime = 4000.14 s  ClockTime = 4013 s

Courant Number mean: 0.273934 max: 3.24183
deltaT = 0.000142857
Time = 0.299286

smoothSolver:  Solving for Ux, Initial residual = 0.000931871, Final residual = 1.46151e-06, No Iterations 2
smoothSolver:  Solving for Uy, Initial residual = 0.00202206, Final residual = 2.68573e-06, No Iterations 2
smoothSolver:  Solving for Uz, Initial residual = 0.00293702, Final residual = 2.02272e-06, No Iterations 2
GAMG:  Solving for p, Initial residual = 0.00236881, Final residual = 2.24198e-05, No Iterations 8
time step continuity errors : sum local = 9.19104e-09, global = -8.6025e-11, cumulative = 1.05791e-07
GAMG:  Solving for p, Initial residual = 0.00100602, Final residual = 9.97793e-08, No Iterations 672
time step continuity errors : sum local = 4.08752e-11, global = -4.11059e-15, cumulative = 1.05791e-07
ExecutionTime = 4002.03 s  ClockTime = 4015 s

Courant Number mean: 0.273932 max: 3.24042
deltaT = 0.000142857
Time = 0.299429

smoothSolver:  Solving for Ux, Initial residual = 0.000933923, Final residual = 1.46629e-06, No Iterations 2
smoothSolver:  Solving for Uy, Initial residual = 0.0020235, Final residual = 2.69273e-06, No Iterations 2
smoothSolver:  Solving for Uz, Initial residual = 0.0029485, Final residual = 1.99048e-06, No Iterations 2
GAMG:  Solving for p, Initial residual = 0.00237392, Final residual = 2.31881e-05, No Iterations 7
time step continuity errors : sum local = 9.49968e-09, global = -9.88287e-11, cumulative = 1.05693e-07
GAMG:  Solving for p, Initial residual = 0.00100756, Final residual = 9.97508e-08, No Iterations 666
time step continuity errors : sum local = 4.08365e-11, global = 4.17168e-15, cumulative = 1.05693e-07
ExecutionTime = 4003.92 s  ClockTime = 4017 s

Courant Number mean: 0.273931 max: 3.23899
deltaT = 0.000142857
Time = 0.299571

smoothSolver:  Solving for Ux, Initial residual = 0.000935984, Final residual = 1.47124e-06, No Iterations 2
smoothSolver:  Solving for Uy, Initial residual = 0.00202497, Final residual = 2.69999e-06, No Iterations 2
smoothSolver:  Solving for Uz, Initial residual = 0.00295863, Final residual = 2.00944e-06, No Iterations 2
GAMG:  Solving for p, Initial residual = 0.00237988, Final residual = 2.35482e-05, No Iterations 7
time step continuity errors : sum local = 9.64082e-09, global = -1.00077e-10, cumulative = 1.05593e-07
GAMG:  Solving for p, Initial residual = 0.00100958, Final residual = 9.99327e-08, No Iterations 673
time step continuity errors : sum local = 4.08844e-11, global = -4.34633e-15, cumulative = 1.05593e-07
ExecutionTime = 4005.81 s  ClockTime = 4019 s

Courant Number mean: 0.273929 max: 3.23758
deltaT = 0.000142857
Time = 0.299714

smoothSolver:  Solving for Ux, Initial residual = 0.000937959, Final residual = 1.47603e-06, No Iterations 2
smoothSolver:  Solving for Uy, Initial residual = 0.00202644, Final residual = 2.70698e-06, No Iterations 2
smoothSolver:  Solving for Uz, Initial residual = 0.0029665, Final residual = 1.99218e-06, No Iterations 2
GAMG:  Solving for p, Initial residual = 0.00238544, Final residual = 2.25096e-05, No Iterations 8
time step continuity errors : sum local = 9.20959e-09, global = -8.74462e-11, cumulative = 1.05505e-07
GAMG:  Solving for p, Initial residual = 0.00101303, Final residual = 9.97525e-08, No Iterations 669
time step continuity errors : sum local = 4.07841e-11, global = 4.34347e-15, cumulative = 1.05505e-07
ExecutionTime = 4007.7 s  ClockTime = 4021 s

Courant Number mean: 0.273927 max: 3.23614
deltaT = 0.000142857
Time = 0.299857

smoothSolver:  Solving for Ux, Initial residual = 0.000939941, Final residual = 1.48082e-06, No Iterations 2
smoothSolver:  Solving for Uy, Initial residual = 0.00202788, Final residual = 2.71386e-06, No Iterations 2
smoothSolver:  Solving for Uz, Initial residual = 0.00297373, Final residual = 1.99541e-06, No Iterations 2
GAMG:  Solving for p, Initial residual = 0.00238974, Final residual = 2.32756e-05, No Iterations 7
time step continuity errors : sum local = 9.51699e-09, global = -9.83521e-11, cumulative = 1.05407e-07
GAMG:  Solving for p, Initial residual = 0.00101433, Final residual = 9.96905e-08, No Iterations 678
time step continuity errors : sum local = 4.07336e-11, global = -4.40125e-15, cumulative = 1.05407e-07
ExecutionTime = 4009.61 s  ClockTime = 4023 s

Courant Number mean: 0.273926 max: 3.23474
deltaT = 0.000142857
Time = 0.3

smoothSolver:  Solving for Ux, Initial residual = 0.000942099, Final residual = 1.48552e-06, No Iterations 2
smoothSolver:  Solving for Uy, Initial residual = 0.00202924, Final residual = 2.72075e-06, No Iterations 2
smoothSolver:  Solving for Uz, Initial residual = 0.0029776, Final residual = 1.96586e-06, No Iterations 2
GAMG:  Solving for p, Initial residual = 0.00239526, Final residual = 2.35519e-05, No Iterations 7
time step continuity errors : sum local = 9.6238e-09, global = -9.99692e-11, cumulative = 1.05307e-07
GAMG:  Solving for p, Initial residual = 0.00101618, Final residual = 9.97098e-08, No Iterations 680
time step continuity errors : sum local = 4.07154e-11, global = 4.29122e-15, cumulative = 1.05307e-07
ExecutionTime = 4011.55 s  ClockTime = 4025 s

End

Finalising parallel run
